    20110315       60000
 FLEXPWRF V5.0
        3600        3600        1200           0
   136.60100       33.091999             288         285  3.08020916E-02  2.87578925E-02
          18   15.000000       50.000000       100.00000       200.00000       300.00000       400.00000       500.00000       1000.0000       2000.0000       3000.0000       4000.0000       5000.0000       6000.0000       7000.0000       8000.0000       9000.0000       10000.000       15000.000    
    20110315       60000
           3           2           1
           1
 WD_I-131  
           1
 DD_I-131  
          18
 I-131     
           1
           0       39599           1
   141.03000       37.419998       141.03999       37.430000       10.000000       30.000000    
      100000           1
 FKS_RELEASE_SCENARIO1                        
   1.0000000    
   1.0000000    
   1.0000000    
           0           1           0
           1   999999999
  0.11494943      0.13932778      0.16458069      0.18978922      0.21424441      0.23927316      0.26952758      0.30206344      0.33363491      0.35310328      0.35384187      0.35362989      0.32496652      0.20631985      7.91458935E-02  0.13586475      0.46220642      0.93454981       1.0182679      0.77029175      0.24294555      1.55241797E-02  5.39025292E-02  0.24831343      0.23236287      7.75461644E-02  6.38261437E-03  0.21943174       1.5269405       3.8996019       7.7934337       13.269665       20.391655       28.271500       36.983803       46.496029       57.679638       70.482224       84.957268       100.14115       116.00177       132.14525       151.04649       172.16676       195.25458       215.60204       232.54204       245.63925       254.90141       260.27997       262.03030       262.60263       262.50089       262.19464       262.06104       262.28912       263.15530       263.71155       263.49130       262.66425       262.23044       262.85522       264.40927       265.75665       266.51932       266.54276       266.63486       267.02530       267.69629       268.51147       269.41376       270.47406       271.27167       271.69705       271.65802       271.99600       273.48169       276.55640       279.42136       281.22482       281.95483       283.60211       287.60031       294.05170       302.17255       311.24878       320.97910       332.51077       346.74084       363.30414       379.07968       390.46521       397.28882       400.35574       401.33652       399.78485       395.63034       388.64017       378.98398       366.79590       352.27325       335.47079       316.65900       296.31476       274.74551       251.44775       224.56920       194.80565       163.91203       136.67371       113.09071       93.130989       74.382370       57.390572       42.459652       31.492487       24.079836       19.601295       14.862105       9.9820461       4.9324174       1.9325066      0.62918508      0.25007105      4.56703380E-02  2.24961322E-02  7.53039727E-03  2.49442607E-02  2.17548385E-02  2.34698202E-03  1.20013962E-02  9.33251083E-02  0.22847475      0.29043815      0.28348681      0.21499421      0.18340608      0.18910822      0.23285025      0.26684466      0.29198313      0.30572775      0.32144776      0.33771089      0.35410047      0.36727861      0.37709287      0.38363168      0.38679504      0.38673443      0.38297909      0.37986651      0.37740871      0.37607488      0.36901107      0.35525987      0.33392635      0.30978519      0.28336877      0.25632814      0.22080587      0.17687367      0.12441101      7.80999735E-02  4.25051749E-02  1.94047485E-02  4.38199984E-03  6.78481456E-06  8.48569180E-05  2.72658584E-03  1.52409328E-02  3.77319902E-02  5.86202145E-02  7.34137669E-02  8.04281235E-02  8.41728374E-02  8.57573822E-02  8.57351944E-02  8.26500803E-02  7.20107481E-02  5.25203906E-02  3.26846987E-02  1.78162679E-02  8.22206587E-03  2.55670864E-03  1.19579927E-04  3.09821280E-06  3.14299359E-06  1.16675721E-04  1.29232198E-04  4.51840106E-06  4.92830168E-06  1.31366437E-06  3.31683414E-09  2.94472775E-05  1.28068670E-04  2.24234274E-04  2.31416372E-04  1.57112634E-04  4.48371720E-05  5.92715821E-07   0.0000000       0.0000000       0.0000000       0.0000000       0.0000000       0.0000000       0.0000000       0.0000000       0.0000000       0.0000000       0.0000000       0.0000000       0.0000000       0.0000000       0.0000000       0.0000000       0.0000000       0.0000000       0.0000000       0.0000000       0.0000000       0.0000000       0.0000000       0.0000000       0.0000000       0.0000000       0.0000000       0.0000000       0.0000000       0.0000000       0.0000000       0.0000000       0.0000000       0.0000000       0.0000000       0.0000000       0.0000000       0.0000000       0.0000000       0.0000000       0.0000000       0.0000000       0.0000000       0.0000000       0.0000000       0.0000000       0.0000000       0.0000000       0.0000000       0.0000000       0.0000000       0.0000000       0.0000000       0.0000000       0.0000000       0.0000000       0.0000000       0.0000000       0.0000000       0.0000000       0.0000000       0.0000000       0.0000000       0.0000000       0.0000000       0.0000000       0.0000000       0.0000000       0.0000000       0.0000000       0.0000000       0.0000000       0.0000000       0.0000000       0.0000000       0.0000000       0.0000000       0.0000000       0.0000000       0.0000000       0.0000000       0.0000000       0.0000000       0.0000000    
  8.70283544E-02  0.11060742      0.13735323      0.16433500      0.19102031      0.21959968      0.25753188      0.30179530      0.34670722      0.37388569      0.38017547      0.38024181      0.36217815      0.28534523      0.19955130      0.22912428      0.40907115      0.67150468      0.69498479      0.51480454      0.16525038      1.06191412E-02  3.04883551E-02  0.14124711      0.13587211      5.92676103E-02  4.20049392E-02  9.23927426E-02  0.60085905       1.6532594       4.2113018       8.3124857       14.051178       20.168816       26.806778       33.958813       42.939301       53.716152       66.391891       79.824402       94.009651       108.56606       126.00564       145.80882       167.78246       187.05882       203.02463       215.14732       224.50047       231.09074       235.01535       236.90184       237.10942       236.11127       235.46365       235.58931       236.94656       238.03125       238.69722       239.07320       239.99820       241.87178       244.84438       247.62912       249.92499       251.65152       253.42264       255.42336       257.56329       260.02826       262.81113       266.08044       268.72522       270.36896       270.81046       271.68314       273.77039       277.41571       280.60995       282.33676       282.64877       283.79245       287.42850       293.68341       301.97031       311.72012       322.65445       335.78455       351.84241       370.42374       388.34009       401.91760       411.02264       416.08496       418.13095       416.96628       413.65106       408.86481       402.87537       394.81125       382.81485       367.12582       348.41193       328.42099       307.24640       284.33011       257.46097       227.42224       195.94965       167.81285       143.00162       121.50533       101.00997       82.080467       64.994354       51.369629       40.893497       33.108616       25.540962       18.307497       11.395765       6.4075775       3.0208707       1.1256729      0.11643322      2.29905937E-02  1.18231382E-02  2.29199547E-02  1.90600231E-02  2.73132953E-03  1.55487917E-02  0.12026143      0.29167664      0.35308301      0.31445932      0.17045282      9.36914608E-02  8.92972872E-02  0.12197959      0.14382622      0.15011397      0.13351701      0.13449104      0.15062757      0.18277355      0.20508976      0.21374762      0.21760993      0.21866490      0.21844856      0.21813487      0.21725732      0.21587256      0.21433371      0.20980923      0.20187962      0.19009724      0.17670242      0.16192158      0.14669918      0.12653023      0.10145508      7.15355426E-02  4.48484197E-02  2.40943599E-02  1.03243235E-02  2.20957468E-03  8.77532584E-04  3.63766379E-03  1.14871264E-02  2.64826417E-02  4.85801697E-02  6.85578510E-02  8.23737308E-02  8.85669291E-02  9.13661271E-02  9.23497379E-02  9.19649899E-02  8.70256498E-02  7.47935474E-02  5.49696162E-02  3.48422006E-02  1.94595587E-02  9.11893230E-03  2.78319488E-03  1.19579956E-04  3.09821303E-06  3.14299564E-06  1.16675714E-04  1.29232081E-04  4.51839969E-06  4.92829759E-06  1.31366460E-06  3.31683569E-09  2.94472884E-05  1.28068656E-04  2.24234391E-04  2.31416314E-04  1.57112678E-04  4.48371829E-05  5.92715878E-07   0.0000000       0.0000000       0.0000000       0.0000000       0.0000000       0.0000000       0.0000000       0.0000000       0.0000000       0.0000000       0.0000000       0.0000000       0.0000000       0.0000000       0.0000000       0.0000000       0.0000000       0.0000000       0.0000000       0.0000000       0.0000000       0.0000000       0.0000000       0.0000000       0.0000000       0.0000000       0.0000000       0.0000000       0.0000000       0.0000000       0.0000000       0.0000000       0.0000000       0.0000000       0.0000000       0.0000000       0.0000000       0.0000000       0.0000000       0.0000000       0.0000000       0.0000000       0.0000000       0.0000000       0.0000000       0.0000000       0.0000000       0.0000000       0.0000000       0.0000000       0.0000000       0.0000000       0.0000000       0.0000000       0.0000000       0.0000000       0.0000000       0.0000000       0.0000000       0.0000000       0.0000000       0.0000000       0.0000000       0.0000000       0.0000000       0.0000000       0.0000000       0.0000000       0.0000000       0.0000000       0.0000000       0.0000000       0.0000000       0.0000000       0.0000000       0.0000000       0.0000000       0.0000000       0.0000000       0.0000000       0.0000000       0.0000000       0.0000000       0.0000000    
  6.26537576E-02  8.55070129E-02  0.11352146      0.14200924      0.17061552      0.20226501      0.24678345      0.30108646      0.35753232      0.39259419      0.40577781      0.40626183      0.39751652      0.35792172      0.31019181      0.31576955      0.37401852      0.45848939      0.44585621      0.31965953      0.11040153      7.24345166E-03  3.20875435E-03  1.56574938E-02  1.75013021E-02  1.33526921E-02  2.81100180E-02  1.08281998E-02  4.40856107E-02  0.19028418       1.2134084       4.0730104       8.6073465       13.205029       18.061163       23.190605       30.254091       39.236080       50.277599       62.104176       74.734505       87.801155       103.81976       122.29292       143.07965       161.22154       176.15816       187.28091       196.56279       203.97533       209.71484       212.74361       213.16402       211.63133       210.50800       210.39600       211.77399       213.17328       214.49301       215.69469       217.68839       220.58096       224.44061       228.25537       231.76306       234.90059       238.08310       241.44791       244.87305       248.76953       253.19415       258.26535       262.81805       266.38907       268.77261       271.16754       274.11044       277.94019       280.85349       281.80023       281.93387       282.51419       285.62512       292.57043       301.68036       311.91299       323.01523       336.45441       353.42847       373.46442       393.22681       408.81485       420.16394       427.39575       430.52814       430.06247       428.78979       426.72665       423.91348       419.37949       410.20923       396.71930       379.63214       361.05231       340.96347       318.83392       292.49997       262.74710       231.27176       202.71402       177.07372       154.35953       132.36945       111.68262       92.551239       76.311821       62.745750       51.563560       41.054405       31.327900       22.370674       15.087495       9.2859402       4.9379292       2.2793143       1.2184551       1.0991379      0.91716158      0.64502150      0.18707766      2.79508308E-02  0.10382363      0.37786323      0.47745773      0.41438639      0.16959558      3.36715132E-02  1.86539218E-02  2.94667408E-02  3.56697962E-02  3.36769186E-02  1.90778021E-02  1.52275944E-02  2.09041759E-02  3.67711745E-02  4.70861495E-02  4.92481999E-02  4.97892573E-02  4.94105667E-02  4.91614714E-02  5.00245430E-02  5.03198542E-02  5.00373282E-02  4.92562391E-02  4.79405411E-02  4.60567698E-02  4.35262956E-02  4.06202190E-02  3.73525172E-02  3.39414030E-02  2.93456838E-02  2.35745981E-02  1.66977830E-02  1.04440963E-02  5.47665823E-03  2.05297279E-03  4.47954837E-04  2.92209419E-03  9.25580319E-03  2.06159800E-02  3.67302932E-02  5.77676482E-02  7.62416348E-02  8.86745006E-02  9.38713849E-02  9.56526771E-02  9.57567319E-02  9.45795551E-02  8.82907137E-02  7.52425194E-02  5.56877404E-02  3.58830914E-02  2.04665475E-02  9.71723069E-03  2.92540155E-03  1.19507553E-04  3.09633651E-06  3.14109116E-06  1.16605072E-04  1.29153937E-04  4.51566166E-06  4.92531535E-06  1.31286924E-06  3.31482930E-09  2.94294441E-05  1.27991079E-04  2.24098636E-04  2.31276150E-04  1.57017523E-04  4.48100145E-05  5.92356855E-07   0.0000000       0.0000000       0.0000000       0.0000000       0.0000000       0.0000000       0.0000000       0.0000000       0.0000000       0.0000000       0.0000000       0.0000000       0.0000000       0.0000000       0.0000000       0.0000000       0.0000000       0.0000000       0.0000000       0.0000000       0.0000000       0.0000000       0.0000000       0.0000000       0.0000000       0.0000000       0.0000000       0.0000000       0.0000000       0.0000000       0.0000000       0.0000000       0.0000000       0.0000000       0.0000000       0.0000000       0.0000000       0.0000000       0.0000000       0.0000000       0.0000000       0.0000000       0.0000000       0.0000000       0.0000000       0.0000000       0.0000000       0.0000000       0.0000000       0.0000000       0.0000000       0.0000000       0.0000000       0.0000000       0.0000000       0.0000000       0.0000000       0.0000000       0.0000000       0.0000000       0.0000000       0.0000000       0.0000000       0.0000000       0.0000000       0.0000000       0.0000000       0.0000000       0.0000000       0.0000000       0.0000000       0.0000000       0.0000000       0.0000000       0.0000000       0.0000000       0.0000000       0.0000000       0.0000000       0.0000000       0.0000000       0.0000000       0.0000000       0.0000000    
  4.10168134E-02  6.22567609E-02  9.00531411E-02  0.11878388      0.14817919      0.18168120      0.23073964      0.29203624      0.35651702      0.39656779      0.41285557      0.41345960      0.40784344      0.38206360      0.34864259      0.34256101      0.35162368      0.36013165      0.34004843      0.23635712      8.35887343E-02  5.52208116E-03   0.0000000       0.0000000       0.0000000       0.0000000       0.0000000       0.0000000       0.0000000       0.0000000      0.27979392       2.1359589       5.3103461       8.3649368       11.518367       14.826169       20.113392       27.395088       36.845856       47.091358       58.167728       69.721741       84.257294       101.29821       120.73723       137.62912       151.45303       161.56639       170.42834       177.99182       184.51111       188.00824       188.47578       186.54895       185.15659       184.99396       186.54213       188.30406       190.17838       192.14395       194.97614       198.74391       203.49112       208.26132       212.79253       217.02066       221.28539       225.70332       230.14948       235.09828       240.63559       246.82999       252.66791       257.70328       261.74640       265.53796       269.37753       273.62033       276.56241       277.15787       277.17435       277.42987       280.42142       288.17886       298.23398       309.14041       320.69006       334.58398       352.28497       373.29102       394.32544       411.52692       424.81949       434.28345       440.16641       442.57040       443.56757       443.62830       442.58524       439.82999       433.38293       423.41727       410.10397       394.24384       375.92017       354.74466       329.23874       300.05869       268.89026       240.21498       214.07648       190.50018       167.35529       145.23659       124.37202       105.85533       89.547951       75.299637       62.024689       49.829334       38.709694       29.072521       20.827358       14.004578       9.3262596       6.5913820       5.5661650       4.5003462       3.3552868       1.9611840       1.1594083      0.77180070      0.75336432      0.65655744      0.48071793      0.18887357      2.88374275E-02  1.45379407E-03  1.72580785E-05  2.66497233E-03  2.36690566E-02  4.79767174E-02  5.74463755E-02  4.97341305E-02  2.13632043E-02  2.94785760E-03  2.06575714E-06  1.64432058E-05  3.58719590E-05  3.91479589E-05  2.86526138E-05  2.08398287E-05  1.71370739E-05  1.73672888E-05  1.62961805E-05  1.35158443E-05  8.82354925E-06  4.94812684E-06  2.30785031E-06  9.84656936E-07  2.21062521E-07  6.44694520E-09  9.90647653E-09  4.79664397E-09  1.46000119E-08  6.71421896E-09  1.10677749E-04  3.98014858E-03  1.15712332E-02  2.36451812E-02  3.99690010E-02  6.07791170E-02  7.88834020E-02  9.09579843E-02  9.58865359E-02  9.73642245E-02  9.70858261E-02  9.54624638E-02  8.88240337E-02  7.56081790E-02  5.60879484E-02  3.63333672E-02  2.08532978E-02  9.92203970E-03  2.94748927E-03  1.02398750E-04  2.65306176E-06  2.69141196E-06  9.99118201E-05  1.10664208E-04  3.86920055E-06  4.22020776E-06  1.12492160E-06  2.84090818E-09  2.52163136E-05  1.09667832E-04  1.92016480E-04  1.98166555E-04  1.34538772E-04  3.83950028E-05  5.07554773E-07   0.0000000       0.0000000       0.0000000       0.0000000       0.0000000       0.0000000       0.0000000       0.0000000       0.0000000       0.0000000       0.0000000       0.0000000       0.0000000       0.0000000       0.0000000       0.0000000       0.0000000       0.0000000       0.0000000       0.0000000       0.0000000       0.0000000       0.0000000       0.0000000       0.0000000       0.0000000       0.0000000       0.0000000       0.0000000       0.0000000       0.0000000       0.0000000       0.0000000       0.0000000       0.0000000       0.0000000       0.0000000       0.0000000       0.0000000       0.0000000       0.0000000       0.0000000       0.0000000       0.0000000       0.0000000       0.0000000       0.0000000       0.0000000       0.0000000       0.0000000       0.0000000       0.0000000       0.0000000       0.0000000       0.0000000       0.0000000       0.0000000       0.0000000       0.0000000       0.0000000       0.0000000       0.0000000       0.0000000       0.0000000       0.0000000       0.0000000       0.0000000       0.0000000       0.0000000       0.0000000       0.0000000       0.0000000       0.0000000       0.0000000       0.0000000       0.0000000       0.0000000       0.0000000       0.0000000       0.0000000       0.0000000       0.0000000       0.0000000       0.0000000    
  2.23938171E-02  4.12511677E-02  6.75549582E-02  9.55426320E-02  0.12499250      0.15951952      0.21105562      0.27609596      0.34502140      0.38955104      0.41025063      0.41153693      0.40633512      0.38206580      0.34965983      0.34216782      0.34734154      0.34831566      0.32811794      0.22719069      8.04144368E-02  5.31405816E-03   0.0000000       0.0000000       0.0000000       0.0000000       0.0000000       0.0000000       0.0000000       0.0000000      0.18192087       1.4094349       3.5418491       5.3066993       6.9394932       8.5300579       12.131946       17.789345       25.714146       34.420685       43.965195       54.010853       67.038689       82.591339       100.57564       116.16140       128.85112       138.01436       146.14326       153.19104       159.42140       162.72847       163.14636       161.10136       159.75874       159.79367       161.71011       163.92143       166.31375       168.85455       172.37129       176.92738       182.56342       188.20876       193.56537       198.54988       203.54854       208.68643       213.83766       219.44296       225.58020       232.31607       238.68138       244.24969       248.83836       253.17108       257.54160       262.30832       265.78793       267.15497       267.12161       267.93924       272.02542       280.40182       291.12476       302.78113       315.20056       329.94006       348.34021       369.94849       391.72995       410.11578       424.92227       436.54028       446.08423       453.12036       457.58466       459.25153       458.22214       455.33942       451.43372       446.45508       439.31827       427.57556       411.65540       391.47849       367.06741       338.79007       308.33191       279.90356       253.64063       229.58156       205.64069       182.42688       160.15358       139.74979       121.14083       104.27877       88.492737       73.896492       60.517929       48.596001       38.094116       29.058115       22.228182       17.419346       14.420314       11.579733       8.8685036       6.1310887       4.1066952       2.6340673       1.6659909      0.97311258      0.52273631      0.26453689      0.11806569      5.51748388E-02  7.35380873E-03  8.64274614E-03  8.25275332E-02  0.20372267      0.24987175      0.21688959      9.16392729E-02  1.27273537E-02  8.79924570E-04  7.00237555E-03  1.52781364E-02  1.66739300E-02  1.22060869E-02  8.88012629E-03  7.30298040E-03  7.39968196E-03  6.94244402E-03  5.75772300E-03  3.75933666E-03  2.10871617E-03  9.83927865E-04  4.19843709E-04  9.42425686E-05  2.74780632E-06  4.22231869E-06  2.04441767E-06  6.22279185E-06  2.86172349E-06  1.10680063E-04  3.98022402E-03  1.15711438E-02  2.36449018E-02  3.99686545E-02  6.07788935E-02  7.88830742E-02  9.09569338E-02  9.58836973E-02  9.73624140E-02  9.70891640E-02  9.54751223E-02  8.88441280E-02  7.56300315E-02  5.61077408E-02  3.63415107E-02  2.08382010E-02  9.86986049E-03  2.86815548E-03  6.11268551E-05  1.58374166E-06  1.60663592E-06  5.96423124E-05  6.60608785E-05  2.30972387E-06  2.51925553E-06  6.71530586E-07  1.69744296E-09  1.50528622E-05  6.54661781E-05  1.14624112E-04  1.18295407E-04  8.03127987E-05  2.29198558E-05  3.02984489E-07   0.0000000       0.0000000       0.0000000       0.0000000       0.0000000       0.0000000       0.0000000       0.0000000       0.0000000       0.0000000       0.0000000       0.0000000       0.0000000       0.0000000       0.0000000       0.0000000       0.0000000       0.0000000       0.0000000       0.0000000       0.0000000       0.0000000       0.0000000       0.0000000       0.0000000       0.0000000       0.0000000       0.0000000       0.0000000       0.0000000       0.0000000       0.0000000       0.0000000       0.0000000       0.0000000       0.0000000       0.0000000       0.0000000       0.0000000       0.0000000       0.0000000       0.0000000       0.0000000       0.0000000       0.0000000       0.0000000       0.0000000       0.0000000       0.0000000       0.0000000       0.0000000       0.0000000       0.0000000       0.0000000       0.0000000       0.0000000       0.0000000       0.0000000       0.0000000       0.0000000       0.0000000       0.0000000       0.0000000       0.0000000       0.0000000       0.0000000       0.0000000       0.0000000       0.0000000       0.0000000       0.0000000       0.0000000       0.0000000       0.0000000       0.0000000       0.0000000       0.0000000       0.0000000       0.0000000       0.0000000       0.0000000       0.0000000       0.0000000       0.0000000    
  8.84638075E-03  2.49912739E-02  4.87586223E-02  7.47730583E-02  0.10284995      0.13647516      0.18708454      0.25126684      0.31961006      0.36525506      0.38878620      0.39131182      0.38677633      0.36459336      0.33448026      0.32964635      0.33844262      0.34742638      0.32808876      0.22801962      8.06639791E-02  5.32927504E-03   0.0000000       0.0000000       0.0000000       0.0000000       0.0000000       0.0000000       0.0000000       0.0000000      0.13188463       1.0393461       2.6289937       3.6178470       4.2486391       4.6224232       6.9714184       11.353554       18.003342       25.385683       33.571621       42.244957       53.811234       67.835808       84.229713       98.390472       109.84221       117.99648       125.13019       131.20694       136.47299       139.12033       139.29497       137.13112       135.79901       135.91101       137.94374       140.31047       142.89328       145.63873       149.46147       154.43037       160.59268       166.74437       172.55016       177.90746       183.27623       188.79715       194.35297       200.30562       206.71443       213.64706       220.23187       226.09227       231.06042       235.84035       240.72243       246.05927       250.23360       252.58125       253.08463       254.89845       260.26740       269.47568       281.02682       293.58734       307.02139       322.70929       341.84225       364.02878       386.51804       406.08563       422.45526       436.33160       449.16980       460.59903       469.47461       473.47025       473.19208       471.52039       470.46161       469.30188       467.75519       461.58423       448.54495       430.10852       407.41379       380.59863       351.33304       323.61642       297.64163       273.45514       249.01483       224.93924       201.42552       179.23753       158.36479       138.86023       120.45416       103.26974       87.374237       72.905006       59.875263       48.338261       38.891499       31.396120       25.688225       20.445827       15.650146       11.180317       7.5843682       4.7345910       2.5799417       1.1762602      0.44904834      0.30331185      0.22680759      0.15884329      2.30544526E-02  1.57067012E-02  0.15521045      0.41380447      0.51102221      0.44384456      0.18803254      2.65894812E-02  1.95758394E-03  1.13184452E-02  3.03159133E-02  3.44161652E-02  3.07735819E-02  2.79064961E-02  2.45200116E-02  2.13169716E-02  1.78215858E-02  1.41897844E-02  1.06456224E-02  7.37918774E-03  4.51176520E-03  2.05083657E-03  4.20246419E-04  1.03165512E-05  1.58525690E-05  7.67570418E-06  2.33633018E-05  1.07442620E-05  1.07285858E-04  3.85749247E-03  1.11931600E-02  2.29869504E-02  3.90469134E-02  5.96154705E-02  7.75308684E-02  8.94855037E-02  9.43727866E-02  9.58691686E-02  9.56570432E-02  9.41442177E-02  8.76527131E-02  7.46107399E-02  5.52851185E-02  3.57193947E-02  2.04028897E-02  9.60394833E-03  2.73596286E-03  2.23814677E-05  5.79882965E-07  5.88265891E-07  2.18379064E-05  2.41881044E-05  8.45711497E-07  9.22428853E-07  2.45893261E-07  6.23902152E-10  5.51156927E-06  2.39702858E-05  4.19693570E-05  4.33135974E-05  2.94063520E-05  8.39205495E-06  1.10937052E-07   0.0000000       0.0000000       0.0000000       0.0000000       0.0000000       0.0000000       0.0000000       0.0000000       0.0000000       0.0000000       0.0000000       0.0000000       0.0000000       0.0000000       0.0000000       0.0000000       0.0000000       0.0000000       0.0000000       0.0000000       0.0000000       0.0000000       0.0000000       0.0000000       0.0000000       0.0000000       0.0000000       0.0000000       0.0000000       0.0000000       0.0000000       0.0000000       0.0000000       0.0000000       0.0000000       0.0000000       0.0000000       0.0000000       0.0000000       0.0000000       0.0000000       0.0000000       0.0000000       0.0000000       0.0000000       0.0000000       0.0000000       0.0000000       0.0000000       0.0000000       0.0000000       0.0000000       0.0000000       0.0000000       0.0000000       0.0000000       0.0000000       0.0000000       0.0000000       0.0000000       0.0000000       0.0000000       0.0000000       0.0000000       0.0000000       0.0000000       0.0000000       0.0000000       0.0000000       0.0000000       0.0000000       0.0000000       0.0000000       0.0000000       0.0000000       0.0000000       0.0000000       0.0000000       0.0000000       0.0000000       0.0000000       0.0000000       0.0000000       0.0000000    
  3.53066018E-03  1.63476225E-02  3.58128995E-02  5.80735244E-02  8.28778669E-02  0.11326759      0.15906708      0.21726698      0.27934006      0.32108828      0.34314910      0.34635240      0.34226051      0.32160455      0.29383054      0.29274148      0.30811509      0.32859933      0.31161201      0.21809128      7.70431459E-02  5.08728484E-03   0.0000000       0.0000000       0.0000000       0.0000000       0.0000000       0.0000000       0.0000000       0.0000000      0.11442911      0.90672296       2.2951241       3.0492263       3.3938663       3.4133120       5.3167500       9.1426344       15.120179       21.521866       28.432407       35.545231       45.477139       57.833744       72.556335       85.183800       95.267487       102.26971       108.21578       113.07952       117.07809       118.78658       118.41431       115.97699       114.38624       114.26762       115.81924       117.77898       120.04723       122.53181       126.15402       130.98468       137.07692       143.18588       148.96532       154.30679       159.69806       165.28621       170.96158       177.04346       183.58336       190.64807       197.43443       203.59843       208.98508       214.27002       219.73344       225.71756       230.67981       233.98764       235.62863       238.61375       245.08704       255.31271       267.89130       281.56812       296.23923       313.10229       333.19003       356.15637       379.56622       400.57098       418.87659       435.24625       451.14832       466.20721       479.04230       487.11691       490.79874       492.65643       495.28195       497.56876       499.23773       496.49661       486.55347       470.98880       450.84402       426.22791       398.74750       372.29962       347.05444       323.06018       298.36642       273.58917       248.89842       224.83293       201.46022       178.95821       157.57675       137.44604       118.67603       101.23219       85.196152       70.636757       58.021675       47.270863       38.286789       30.160164       22.888985       16.396780       11.003091       6.6176691       3.1800141       1.1083108      0.38912341      0.26870894      0.32246354      0.32012379      8.34036320E-02  6.18004352E-02  0.25493631      0.63076073      0.76617080      0.66129714      0.28424710      4.19412553E-02  3.63033824E-03  7.62038771E-03  2.20913123E-02  4.02137786E-02  5.01625761E-02  5.42209819E-02  4.86050285E-02  3.04413121E-02  1.63096394E-02  1.02721155E-02  7.99916126E-03  6.47060806E-03  4.81818384E-03  2.18062825E-03  4.04518214E-04  9.51339644E-06  1.46184266E-05  7.07813751E-06  2.15444452E-05  9.90780882E-06  9.86101368E-05  3.54477414E-03  1.02610067E-02  2.12071054E-02  3.62452790E-02  5.56145720E-02  7.25002512E-02  8.37581158E-02  8.83462876E-02  8.97514522E-02  8.95698145E-02  8.81831050E-02  8.21163878E-02  6.98824748E-02  5.17299175E-02  3.33593339E-02  1.90029144E-02  8.91291443E-03  2.51523289E-03  4.11647943E-06  1.06653900E-07  1.08195671E-07  4.01651323E-06  4.44877605E-06  1.55571300E-07  1.69681130E-07  4.52442208E-08  1.20056715E-10  1.01370813E-06  4.40869871E-06  7.71914893E-06  7.96638051E-06  5.40851670E-06  1.54349732E-06  2.04039612E-08   0.0000000       0.0000000       0.0000000       0.0000000       0.0000000       0.0000000       0.0000000       0.0000000       0.0000000       0.0000000       0.0000000       0.0000000       0.0000000       0.0000000       0.0000000       0.0000000       0.0000000       0.0000000       0.0000000       0.0000000       0.0000000       0.0000000       0.0000000       0.0000000       0.0000000       0.0000000       0.0000000       0.0000000       0.0000000       0.0000000       0.0000000       0.0000000       0.0000000       0.0000000       0.0000000       0.0000000       0.0000000       0.0000000       0.0000000       0.0000000       0.0000000       0.0000000       0.0000000       0.0000000       0.0000000       0.0000000       0.0000000       0.0000000       0.0000000       0.0000000       0.0000000       0.0000000       0.0000000       0.0000000       0.0000000       0.0000000       0.0000000       0.0000000       0.0000000       0.0000000       0.0000000       0.0000000       0.0000000       0.0000000       0.0000000       0.0000000       0.0000000       0.0000000       0.0000000       0.0000000       0.0000000       0.0000000       0.0000000       0.0000000       0.0000000       0.0000000       0.0000000       0.0000000       0.0000000       0.0000000       0.0000000       0.0000000       0.0000000       0.0000000    
  2.76189856E-03  1.27439974E-02  2.79475432E-02  4.55849133E-02  6.54205680E-02  8.98685381E-02  0.12667949      0.17346042      0.22335659      0.25694755      0.27475011      0.27741396      0.27413425      0.25752798      0.23520218      0.23452890      0.24732251      0.26439169      0.25079015      0.17560583      6.20287843E-02  4.09570802E-03   0.0000000       0.0000000       0.0000000       0.0000000       0.0000000       0.0000000       0.0000000       0.0000000      0.11854961      0.92890322       2.3350396       3.2457974       3.8483484       4.2052584       6.1599579       9.7371769       15.126029       20.843630       26.959040       33.195160       41.897083       52.708324       65.568047       76.486122       85.051956       90.805046       95.376854       98.741493       100.93226       101.54597       100.39922       97.584755       95.540733       95.161003       95.740585       96.575539       97.994392       99.779449       102.73058       106.91834       112.40383       117.96648       123.26939       128.20726       133.26714       138.59639       144.09543       150.05829       156.53398       163.58923       170.48187       176.89619       182.69028       188.49852       194.58607       201.27924       207.12610       211.53302       214.49071       218.84479       226.62138       238.06284       251.87152       266.87518       283.00012       301.26117       322.53455       346.49747       371.07236       393.82843       414.53171       433.69168       452.38171       470.15393       486.32465       499.83066       510.50500       518.81482       525.92419       531.20471       533.86755       532.21460       525.67432       514.24127       497.40680       475.48114       450.04343       425.29575       401.27060       377.97153       353.36703       328.08704       302.26810       276.25610       250.19275       224.40283       199.73897       176.34012       154.36305       133.55373       114.07700       96.022629       79.712601       65.142982       52.303661       40.791557       30.629238       21.796392       14.424525       8.4541340       3.8066969       1.1174959      0.46171337      0.29349071      0.43126166      0.50224298      0.20719405      0.17794323      0.41536048      0.87665468       1.0332708      0.88811946      0.40475187      8.31136778E-02  8.22021626E-03  2.84323096E-03  8.98534898E-03  5.20012863E-02  0.10124708      0.12732655      0.12315499      7.87653178E-02  4.69829030E-02  3.98117863E-02  4.25886288E-02  4.66863066E-02  4.77275737E-02  4.68337201E-02  4.49022762E-02  4.12213989E-02  3.60911004E-02  2.87686493E-02  1.97347365E-02  8.75790138E-03  1.67995377E-03  1.72398076E-03  9.23047308E-03  2.10152864E-02  3.52944583E-02  5.21347485E-02  6.62994906E-02  7.47034922E-02  7.75304809E-02  7.81505033E-02  7.74505660E-02  7.60209262E-02  7.07565323E-02  6.02082498E-02  4.46210764E-02  2.88473740E-02  1.64944772E-02  7.75455125E-03  2.18340196E-03  3.09651364E-06  8.02256821E-08  8.13852239E-08  3.02131457E-06  3.32683408E-06  9.46035712E-08  1.82597674E-07  1.07730457E-07  7.70223707E-09  2.23237926E-08  1.26600369E-07  2.47870844E-07  2.60387338E-07  1.78008307E-07  5.02067010E-08  6.63346045E-10   0.0000000       0.0000000       0.0000000       0.0000000       0.0000000       0.0000000       0.0000000       0.0000000       0.0000000       0.0000000       0.0000000       0.0000000       0.0000000       0.0000000       0.0000000       0.0000000       0.0000000       0.0000000       0.0000000       0.0000000       0.0000000       0.0000000       0.0000000       0.0000000       0.0000000       0.0000000       0.0000000       0.0000000       0.0000000       0.0000000       0.0000000       0.0000000       0.0000000       0.0000000       0.0000000       0.0000000       0.0000000       0.0000000       0.0000000       0.0000000       0.0000000       0.0000000       0.0000000       0.0000000       0.0000000       0.0000000       0.0000000       0.0000000       0.0000000       0.0000000       0.0000000       0.0000000       0.0000000       0.0000000       0.0000000       0.0000000       0.0000000       0.0000000       0.0000000       0.0000000       0.0000000       0.0000000       0.0000000       0.0000000       0.0000000       0.0000000       0.0000000       0.0000000       0.0000000       0.0000000       0.0000000       0.0000000       0.0000000       0.0000000       0.0000000       0.0000000       0.0000000       0.0000000       0.0000000       0.0000000       0.0000000       0.0000000       0.0000000       0.0000000    
  2.14994769E-03  9.95223597E-03  2.17392072E-02  3.50679159E-02  4.98033427E-02  6.77685216E-02  9.48746204E-02  0.12933610      0.16609222      0.19073448      0.20369802      0.20552748      0.20326525      0.19187593      0.17640215      0.17488134      0.18121120      0.18924373      0.17903158      0.12476958      4.41201776E-02  2.91439379E-03   0.0000000       0.0000000       0.0000000       0.0000000       0.0000000       0.0000000       0.0000000       0.0000000      0.12739684      0.98452640       2.4552107       3.6162131       4.6130648       5.4904771       7.5990200       10.959856       15.710514       20.862740       26.454994       32.251793       40.021969       49.442184       60.431240       69.635330       76.689392       81.210365       84.420555       85.928535       86.491776       86.449394       84.594521       81.264122       78.597412       77.337616       77.009132       76.951248       77.493759       78.466446       80.609398       83.991867       88.680656       93.513824       98.173157       102.56221       107.15018       112.08179       117.26666       122.98801       129.29721       136.26070       143.18170       149.76512       155.87956       162.12669       168.75874       176.09006       182.74023       188.14746       192.30531       197.93323       206.96902       219.63898       234.72134       251.10715       268.74619       288.51227       311.16110       336.38062       362.38034       387.06207       410.26624       432.20453       453.51135       473.65823       492.82870       511.36310       528.95013       544.46143       555.98596       563.36542       566.63885       566.56226       562.99530       555.41113       542.26544       524.01630       501.95663       479.73093       457.30481       434.70749       410.34500       384.77710       358.10431       330.32294       301.68311       272.65912       244.74774       218.08922       192.88768       168.65450       145.64211       123.96207       103.78122       85.175537       68.229294       53.111427       39.868279       28.540319       18.939465       11.057551       4.8032484       1.2899295      0.68864578      0.48930636      0.75895578      0.79573774      0.34829846      0.25981817      0.48278409      0.99710673       1.1672900      0.99931437      0.45265412      8.88164043E-02  6.13361178E-03  2.91780481E-04  6.04686141E-03  7.18592331E-02  0.16239321      0.20616287      0.19291209      0.10788192      4.67761606E-02  3.51339616E-02  3.82406749E-02  4.19550911E-02  4.29149158E-02  4.28559296E-02  4.15701866E-02  3.82452309E-02  3.34838964E-02  2.66914591E-02  1.83060132E-02  8.12377967E-03  1.55228050E-03  1.36762555E-03  7.91161973E-03  1.80487931E-02  3.01039387E-02  4.41110246E-02  5.58314100E-02  6.26859441E-02  6.49318993E-02  6.53875992E-02  6.47345781E-02  6.34913221E-02  5.90719804E-02  5.02604432E-02  3.72643769E-02  2.41134055E-02  1.38044134E-02  6.49523363E-03  1.82822952E-03  2.87310218E-06  7.44376436E-08  7.55135332E-08  2.80332802E-06  3.08679887E-06  8.77614994E-08  1.69406576E-07  9.99475915E-08  7.14304527E-09  2.07105764E-08  1.17457247E-07  2.29971334E-07  2.41583649E-07  1.65154304E-07  4.65802970E-08  6.15431928E-10   0.0000000       0.0000000       0.0000000       0.0000000       0.0000000       0.0000000       0.0000000       0.0000000       0.0000000       0.0000000       0.0000000       0.0000000       0.0000000       0.0000000       0.0000000       0.0000000       0.0000000       0.0000000       0.0000000       0.0000000       0.0000000       0.0000000       0.0000000       0.0000000       0.0000000       0.0000000       0.0000000       0.0000000       0.0000000       0.0000000       0.0000000       0.0000000       0.0000000       0.0000000       0.0000000       0.0000000       0.0000000       0.0000000       0.0000000       0.0000000       0.0000000       0.0000000       0.0000000       0.0000000       0.0000000       0.0000000       0.0000000       0.0000000       0.0000000       0.0000000       0.0000000       0.0000000       0.0000000       0.0000000       0.0000000       0.0000000       0.0000000       0.0000000       0.0000000       0.0000000       0.0000000       0.0000000       0.0000000       0.0000000       0.0000000       0.0000000       0.0000000       0.0000000       0.0000000       0.0000000       0.0000000       0.0000000       0.0000000       0.0000000       0.0000000       0.0000000       0.0000000       0.0000000       0.0000000       0.0000000       0.0000000       0.0000000       0.0000000       0.0000000    
  1.46157120E-03  6.79264590E-03  1.49702812E-02  2.44497303E-02  3.51138674E-02  4.82628457E-02  6.80775046E-02  9.32740271E-02  0.12015098      0.13820262      0.14775193      0.14917958      0.14755009      0.13931371      0.12808275      0.12687644      0.13126582      0.13683246      0.12942104      9.01606083E-02  3.18843648E-02  2.10620835E-03   0.0000000       0.0000000       0.0000000       0.0000000       0.0000000       0.0000000       0.0000000       0.0000000      0.13223854       1.0156260       2.5219605       3.7997296       4.9694085       6.0552516       8.2273321       11.484758       15.933926       20.618269       25.562523       30.546799       37.199417       45.234421       54.583202       62.273472       67.985794       71.386375       73.528198       73.938362       73.871117       72.919922       70.302330       66.363358       63.048573       60.754974       59.811493       59.332218       59.352680       59.689796       61.137253       63.849606       67.873695       72.087921       76.192299       80.098396       84.257248       88.811096       93.677132       99.132744       105.23179       112.04307       118.90052       125.52533       131.79422       138.29575       145.27832       153.05537       160.27603       166.39278       171.40234       177.97865       188.02708       201.76784       218.01463       235.68619       254.74294       275.99167       300.12976       326.85843       354.49414       381.06497       406.44345       430.78925       454.65234       477.45218       499.68860       522.19806       544.58893       565.04083       580.33862       590.47021       595.74854       597.66187       596.00250       590.88794       581.44000       568.11084       551.45941       532.82068       512.30798       490.11136       466.03720       440.42911       413.34921       384.18884       353.36008       321.47458       290.65875       261.04462       232.87930       205.46046       179.12158       153.99368       130.07585       107.52280       86.509933       67.791451       51.435013       37.541664       25.525063       15.443363       7.2017260       2.5076170       1.5390275       1.2943921       1.5552161       1.4316787      0.55810678      0.25326297      0.35944617      0.86863428       1.0485635      0.90296960      0.38408166      5.66218793E-02  4.52743005E-03  2.67268345E-02  7.50864148E-02  0.16291827      0.26045769      0.29324630      0.25244331      0.12218578      2.72995587E-02  5.14110224E-03  2.41304003E-03  3.68135655E-03  5.72851021E-03  3.12508643E-03  1.43732643E-03  9.80872661E-04  8.71728640E-04  7.71654944E-04  5.98588900E-04  5.21376671E-04  2.02167648E-04  1.21263054E-03  3.52513464E-03  7.26148346E-03  1.50250904E-02  2.76116710E-02  3.92691121E-02  4.76138145E-02  5.20357117E-02  5.42587787E-02  5.47991432E-02  5.43043502E-02  5.08021973E-02  4.32683043E-02  3.19511071E-02  2.04981305E-02  1.15855252E-02  5.40469401E-03  1.52837695E-03  6.86969599E-07  1.77987740E-08  1.80560509E-08  6.70295265E-07  7.42439454E-07  2.59666066E-08  2.83199437E-08  7.55763185E-09  2.09351165E-11  1.69170391E-07  7.35736535E-07  1.28819374E-06  1.32945343E-06  9.02589079E-07  2.57583110E-07  3.40506734E-09   0.0000000       0.0000000       0.0000000       0.0000000       0.0000000       0.0000000       0.0000000       0.0000000       0.0000000       0.0000000       0.0000000       0.0000000       0.0000000       0.0000000       0.0000000       0.0000000       0.0000000       0.0000000       0.0000000       0.0000000       0.0000000       0.0000000       0.0000000       0.0000000       0.0000000       0.0000000       0.0000000       0.0000000       0.0000000       0.0000000       0.0000000       0.0000000       0.0000000       0.0000000       0.0000000       0.0000000       0.0000000       0.0000000       0.0000000       0.0000000       0.0000000       0.0000000       0.0000000       0.0000000       0.0000000       0.0000000       0.0000000       0.0000000       0.0000000       0.0000000       0.0000000       0.0000000       0.0000000       0.0000000       0.0000000       0.0000000       0.0000000       0.0000000       0.0000000       0.0000000       0.0000000       0.0000000       0.0000000       0.0000000       0.0000000       0.0000000       0.0000000       0.0000000       0.0000000       0.0000000       0.0000000       0.0000000       0.0000000       0.0000000       0.0000000       0.0000000       0.0000000       0.0000000       0.0000000       0.0000000       0.0000000       0.0000000       0.0000000       0.0000000    
  6.80947443E-04  3.18457955E-03  7.48888915E-03  1.35905901E-02  2.12951396E-02  3.14569622E-02  4.66458313E-02  6.59824312E-02  8.66217688E-02  0.10062736      0.10828625      0.10981477      0.10869461      0.10284021      9.46868062E-02  9.35956687E-02  9.63005349E-02  9.96659771E-02  9.41882133E-02  6.55157790E-02  2.31771804E-02  1.53123215E-03   0.0000000       0.0000000       0.0000000       0.0000000       0.0000000       0.0000000       0.0000000       0.0000000      0.12660675      0.96784109       2.3958430       3.6737137       4.8965516       6.0758696       8.1439123       11.091925       15.001190       19.068018       23.308870       27.528179       33.163616       39.964752       47.879845       54.247372       58.792652       61.202412       62.622318       62.892670       62.751881       60.919647       57.612694       52.949078       48.986538       46.147511       44.768387       43.875229       43.643265       43.678280       44.448730       46.573456       50.068192       53.786186       57.448509       60.976418       64.791229       69.030022       73.612961       78.832947       84.750092       91.436790       98.219574       104.81842       111.11147       117.70336       124.85132       132.87973       140.41168       146.89127       152.31915       159.43315       170.18526       184.80321       202.08064       220.91785       241.27000       263.96954       289.73260       318.28116       347.79883       376.17422       403.26892       429.50366       455.78598       481.50745       506.91122       532.38605       557.53210       580.70154       599.09674       612.72931       621.41620       625.14740       624.11444       620.29706       614.67664       607.76361       598.84833       584.90643       566.44220       544.01178       520.10034       494.65063       467.67734       437.55905       404.94684       370.57367       337.21432       304.97379       274.13586       243.79420       214.35860       185.97731       158.49117       132.13098       107.16155       84.879837       65.377243       48.814659       34.330883       22.035931       11.833304       5.5972557       3.1907163       2.9941056       2.8757942       2.3301761      0.85169691      0.17575668      0.14315958      0.47058171      0.63239425      0.56963861      0.22022814      3.41163389E-02  3.60856690E-02  0.14507510      0.25901023      0.34676126      0.40007794      0.40715435      0.32887715      0.15716738      3.35564129E-02  5.20023517E-03  2.44078599E-03  3.72370332E-03  5.79441292E-03  3.16103688E-03  1.45386090E-03  9.92155867E-04  8.81756481E-04  7.80531846E-04  6.05475157E-04  5.27374505E-04  1.70385116E-04   0.0000000       0.0000000      9.17603102E-05  4.56303684E-03  1.44683709E-02  2.48146076E-02  3.36190015E-02  4.04564850E-02  4.53747809E-02  4.70948033E-02  4.70851958E-02  4.55633178E-02  3.97754312E-02  2.90903784E-02  1.82132144E-02  9.95333586E-03  4.53986926E-03  1.30730483E-03  6.94872483E-07  1.80035329E-08  1.82637674E-08  6.78006472E-07  7.50979893E-07  2.62653241E-08  2.86457471E-08  7.64457830E-09  2.11759499E-11  1.71116497E-07  7.44200293E-07  1.30301351E-06  1.34474703E-06  9.12972666E-07  2.60546472E-07  3.44423934E-09   0.0000000       0.0000000       0.0000000       0.0000000       0.0000000       0.0000000       0.0000000       0.0000000       0.0000000       0.0000000       0.0000000       0.0000000       0.0000000       0.0000000       0.0000000       0.0000000       0.0000000       0.0000000       0.0000000       0.0000000       0.0000000       0.0000000       0.0000000       0.0000000       0.0000000       0.0000000       0.0000000       0.0000000       0.0000000       0.0000000       0.0000000       0.0000000       0.0000000       0.0000000       0.0000000       0.0000000       0.0000000       0.0000000       0.0000000       0.0000000       0.0000000       0.0000000       0.0000000       0.0000000       0.0000000       0.0000000       0.0000000       0.0000000       0.0000000       0.0000000       0.0000000       0.0000000       0.0000000       0.0000000       0.0000000       0.0000000       0.0000000       0.0000000       0.0000000       0.0000000       0.0000000       0.0000000       0.0000000       0.0000000       0.0000000       0.0000000       0.0000000       0.0000000       0.0000000       0.0000000       0.0000000       0.0000000       0.0000000       0.0000000       0.0000000       0.0000000       0.0000000       0.0000000       0.0000000       0.0000000       0.0000000       0.0000000       0.0000000       0.0000000    
  1.21492805E-04  5.74969163E-04  1.69175502E-03  4.63892287E-03  1.00958701E-02  1.81232467E-02  2.99798027E-02  4.51042317E-02  6.12619445E-02  7.23709911E-02  7.87093118E-02  8.03757310E-02  7.96802640E-02  7.57104382E-02  6.99966177E-02  6.92268685E-02  7.09974617E-02  7.30677694E-02  6.90051392E-02  4.79398146E-02  1.69664696E-02  1.12106709E-03   0.0000000       0.0000000       0.0000000       0.0000000       0.0000000       0.0000000       0.0000000       0.0000000      0.11835310      0.89882362       2.2160265       3.4876814       4.7788429       6.0912695       8.0191879       10.555996       13.757477       17.114710       20.638556       24.168663       28.876230       34.547657       41.146439       46.329281       49.865025       51.455345       52.349022       52.489620       52.259720       50.271664       46.680283       41.507847       37.126026       33.985989       32.433128       31.370546       31.090187       31.099432       31.352818       33.055283       36.212410       39.575096       42.871090       46.023197       49.452763       53.297958       57.490677       62.295868       67.773651       73.998924       80.372231       86.650658       92.725143       99.180321       106.26656       114.31982       121.96374       128.64706       134.37428       141.90869       153.22134       168.54507       186.66971       206.49113       227.97029       251.93678       279.10571       309.19479       340.40903       370.65878       399.78479       428.20029       456.79788       484.99384       512.86462       540.54572       567.60370       592.79639       614.12073       631.58020       644.29999       649.91205       649.26428       647.31061       645.49536       643.72357       641.41608       632.84808       617.29681       596.07330       573.20862       548.36810       521.55597       490.69769       456.58960       420.08649       384.46893       349.84351       316.52969       283.44006       251.05450       219.53870       188.56619       158.44586       129.53246       103.67212       80.980431       61.678722       44.636036       30.015791       17.723442       9.7729349       5.7372589       5.2852535       4.5675526       3.3693237       1.2358470      0.14051580      1.22978128E-02  0.11283217      0.22263563      0.21638273      8.54192451E-02  5.30359298E-02  0.21824600      0.57384515      0.82861060      0.90035892      0.90736574      0.89801371      0.76953870      0.54590821      0.36470374      0.26555672      0.21606947      0.17032765      0.12537995      8.06785300E-02  4.89665940E-02  3.13000120E-02  2.80468464E-02  2.54764222E-02  1.98711846E-02  9.71804094E-03  1.92060368E-03   0.0000000       0.0000000      7.70495608E-05  3.81479831E-03  1.12126470E-02  1.92878526E-02  2.68749278E-02  3.34390663E-02  3.86068709E-02  4.04550023E-02  4.04549353E-02  4.04218324E-02  3.61868702E-02  2.61710566E-02  1.59346834E-02  8.37950688E-03  3.71699571E-03  1.09165686E-03   0.0000000       0.0000000       0.0000000       0.0000000       0.0000000       0.0000000       0.0000000       0.0000000       0.0000000       0.0000000       0.0000000       0.0000000       0.0000000       0.0000000       0.0000000       0.0000000       0.0000000       0.0000000       0.0000000       0.0000000       0.0000000       0.0000000       0.0000000       0.0000000       0.0000000       0.0000000       0.0000000       0.0000000       0.0000000       0.0000000       0.0000000       0.0000000       0.0000000       0.0000000       0.0000000       0.0000000       0.0000000       0.0000000       0.0000000       0.0000000       0.0000000       0.0000000       0.0000000       0.0000000       0.0000000       0.0000000       0.0000000       0.0000000       0.0000000       0.0000000       0.0000000       0.0000000       0.0000000       0.0000000       0.0000000       0.0000000       0.0000000       0.0000000       0.0000000       0.0000000       0.0000000       0.0000000       0.0000000       0.0000000       0.0000000       0.0000000       0.0000000       0.0000000       0.0000000       0.0000000       0.0000000       0.0000000       0.0000000       0.0000000       0.0000000       0.0000000       0.0000000       0.0000000       0.0000000       0.0000000       0.0000000       0.0000000       0.0000000       0.0000000       0.0000000       0.0000000       0.0000000       0.0000000       0.0000000       0.0000000       0.0000000       0.0000000       0.0000000       0.0000000       0.0000000       0.0000000       0.0000000       0.0000000       0.0000000       0.0000000    
   0.0000000       0.0000000       0.0000000      9.43671563E-04  4.04106965E-03  9.04296618E-03  1.68874096E-02  2.72102263E-02  3.84206586E-02  4.61231917E-02  5.05732633E-02  5.18551841E-02  5.16046807E-02  4.94565107E-02  4.63178158E-02  4.63023856E-02  4.83078808E-02  5.06465882E-02  4.80954796E-02  3.44206914E-02  1.39748072E-02  2.79365247E-03  3.72781709E-04  3.05966969E-04  2.09093982E-04  1.89094819E-04  1.13786198E-04  1.56315546E-05  2.04838761E-05  2.48223000E-06  0.11358050      0.85788399       2.1080918       3.3906457       4.7477250       6.1701894       8.0291910       10.311596       13.049631       15.886532       18.825624       21.734421       25.568005       30.151648       35.461407       39.536274       42.190361       43.161991       43.632835       43.596317       43.255070       41.244118       37.681049       32.540356       28.207195       25.118813       23.608042       22.558025       22.278549       22.279531       22.366295       23.916868       26.944536       30.077089       33.019032       35.678535       38.543339       41.768002       45.316650       49.323906       53.833359       58.918472       64.248680       69.707382       75.225822       81.272469       88.047043       95.885040       103.52039       110.45386       116.69389       124.84097       136.75131       152.64496       171.39476       191.96835       214.34572       239.25116       267.30988       298.22058       330.49796       362.39551       393.77020       424.60181       455.16849       484.94113       514.40070       544.39087       574.37341       602.96716       627.81683       648.95221       665.31860       674.47601       677.01056       677.36407       678.18445       678.39392       678.25385       674.19086       663.02460       646.39056       626.39435       602.83783       575.79553       544.20679       508.75470       470.43152       432.73746       395.85355       360.13895       324.35956       289.05966       254.42232       219.92712       185.96863       152.99713       123.45400       97.479805       75.360466       55.676605       38.649052       24.186174       14.536322       9.2209425       7.9835787       6.5161424       4.6152067       1.7938844      0.27546808      7.28505328E-02  8.96574035E-02  0.14342885      0.23532790      0.25148636      0.44459388      0.89798415       1.5946205       2.0679107       2.1530218       2.1519980       2.1277909       1.9571843       1.7034481       1.4645840       1.2635279       1.1215650      0.98288119      0.84301710      0.70237279      0.58261514      0.48642331      0.41496211      0.34883082      0.28323606      0.21667762      0.15920964      0.11566240      8.09822679E-02  5.58998212E-02  4.27601039E-02  4.14987467E-02  4.26221378E-02  4.19146828E-02  3.77727598E-02  3.42791826E-02  3.27527300E-02  3.27288806E-02  3.25345919E-02  2.88815442E-02  2.06654053E-02  1.22617707E-02  6.32495154E-03  2.77702650E-03  1.03150005E-03  5.72798890E-04  1.33257627E-03  2.06676195E-03  2.08502379E-03  1.34293525E-03  3.83012579E-04  2.68373678E-05  6.42676014E-07  7.97307393E-07  1.67697217E-05  2.30158239E-05  1.74395169E-07   0.0000000       0.0000000       0.0000000       0.0000000       0.0000000       0.0000000       0.0000000       0.0000000       0.0000000       0.0000000       0.0000000       0.0000000       0.0000000       0.0000000       0.0000000       0.0000000       0.0000000       0.0000000       0.0000000       0.0000000       0.0000000       0.0000000       0.0000000       0.0000000       0.0000000       0.0000000       0.0000000       0.0000000       0.0000000       0.0000000       0.0000000       0.0000000       0.0000000       0.0000000       0.0000000       0.0000000       0.0000000       0.0000000       0.0000000       0.0000000       0.0000000       0.0000000       0.0000000       0.0000000       0.0000000       0.0000000       0.0000000       0.0000000       0.0000000       0.0000000       0.0000000       0.0000000       0.0000000       0.0000000       0.0000000       0.0000000       0.0000000       0.0000000       0.0000000       0.0000000       0.0000000       0.0000000       0.0000000       0.0000000       0.0000000       0.0000000       0.0000000       0.0000000       0.0000000       0.0000000       0.0000000       0.0000000       0.0000000       0.0000000       0.0000000       0.0000000       0.0000000       0.0000000       0.0000000       0.0000000       0.0000000       0.0000000       0.0000000       0.0000000       0.0000000       0.0000000       0.0000000       0.0000000    
   0.0000000       0.0000000       0.0000000      3.96176009E-04  1.65053771E-03  3.83743411E-03  7.78660877E-03  1.32897850E-02  1.94199961E-02  2.34667286E-02  2.56564673E-02  2.61853226E-02  2.62438506E-02  2.56438255E-02  2.49092765E-02  2.62856595E-02  2.95472071E-02  3.34552042E-02  3.30179073E-02  2.66030971E-02  1.58682354E-02  8.50209687E-03  4.04608948E-03  2.09109508E-03  7.51039595E-04  3.19203129E-04  3.84562998E-04  5.72552781E-05  7.13573099E-05  8.64699177E-06  0.11284776      0.84960669       2.0816913       3.3786051       4.7678862       6.2287917       8.0366058       10.165100       12.627225       15.090114       17.549248       19.894142       22.904036       26.444674       30.501616       33.553516       35.460835       36.017651       36.185635       35.959213       35.520042       33.643486       30.428440       25.843941       22.025339       19.357651       18.142054       17.322807       17.102409       17.116106       17.456053       19.178007       22.322281       25.387547       28.024624       30.110390       32.266083       34.677685       37.361767       40.220482       43.264389       46.561275       50.242958       54.408218       59.055698       64.441368       70.671753       78.070259       85.587791       92.824600       99.792305       108.74480       121.29111       137.62143       156.77606       177.86983       200.89307       226.40581       254.88898       286.06259       318.75546       351.58493       384.42630       417.06757       449.47989       481.16815       512.81970       545.63220       579.01263       611.35962       639.87463       664.50958       684.38647       698.45056       706.63287       710.14569       712.21704       712.05359       710.34882       708.02148       702.62268       693.98218       678.66931       657.04224       629.33356       597.01239       560.38159       520.58618       481.03387       442.05536       404.05566       365.69159       327.56708       289.88116       251.89406       214.09129       177.02399       143.76740       114.48689       89.535881       67.189751       47.729664       31.067873       19.691395       13.088512       10.993124       8.7389030       6.1157842       2.6015186      0.66395265      0.39979920      0.39896253      0.43561009      0.73275369      0.93526459       1.4726188       2.2639995       3.2879496       3.9734275       4.0970378       4.0956612       4.0669146       3.8919611       3.6654551       3.4202762       3.1747346       2.9498227       2.7125633       2.4620986       2.2029171       1.9417261       1.6826618       1.4276030       1.1887138      0.97115242      0.77882010      0.60693079      0.45557511      0.32295749      0.22347623      0.15966332      0.13284060      0.11436579      9.12500396E-02  5.95952906E-02  3.40699218E-02  2.27245614E-02  2.06430107E-02  2.04149429E-02  1.82959866E-02  1.29161095E-02  7.33442558E-03  3.97676090E-03  2.20228336E-03  1.57532026E-03  2.43836991E-03  5.64807933E-03  8.35586805E-03  8.24567862E-03  5.25814481E-03  1.48850773E-03  8.15390958E-05  1.95261464E-06  2.42242459E-06  5.84339214E-05  8.02004433E-05  6.07693892E-07   0.0000000       0.0000000       0.0000000       0.0000000       0.0000000       0.0000000       0.0000000       0.0000000       0.0000000       0.0000000       0.0000000       0.0000000       0.0000000       0.0000000       0.0000000       0.0000000       0.0000000       0.0000000       0.0000000       0.0000000       0.0000000       0.0000000       0.0000000       0.0000000       0.0000000       0.0000000       0.0000000       0.0000000       0.0000000       0.0000000       0.0000000       0.0000000       0.0000000       0.0000000       0.0000000       0.0000000       0.0000000       0.0000000       0.0000000       0.0000000       0.0000000       0.0000000       0.0000000       0.0000000       0.0000000       0.0000000       0.0000000       0.0000000       0.0000000       0.0000000       0.0000000       0.0000000       0.0000000       0.0000000       0.0000000       0.0000000       0.0000000       0.0000000       0.0000000       0.0000000       0.0000000       0.0000000       0.0000000       0.0000000       0.0000000       0.0000000       0.0000000       0.0000000       0.0000000       0.0000000       0.0000000       0.0000000       0.0000000       0.0000000       0.0000000       0.0000000       0.0000000       0.0000000       0.0000000       0.0000000       0.0000000       0.0000000       0.0000000       0.0000000       0.0000000       0.0000000       0.0000000       0.0000000    
   0.0000000       0.0000000       0.0000000      1.14082504E-04  4.75015317E-04  1.09732489E-03  2.20757211E-03  3.75795993E-03  5.46730403E-03  6.47878647E-03  6.89996779E-03  6.89989375E-03  7.14029139E-03  7.86834303E-03  9.23140068E-03  1.26506146E-02  1.77709032E-02  2.37345248E-02  2.61410121E-02  2.48926952E-02  2.17616279E-02  1.82750076E-02  1.23896124E-02  5.68110589E-03  1.53353438E-03  2.96201673E-04  7.40219781E-04  1.19090539E-04  1.58758077E-04  1.92383086E-05  0.10890175      0.81675237       1.9961439       3.2871740       4.7021928       6.2123957       7.9577513       9.9052172       12.050171       14.143108       16.173613       18.056124       20.376934       23.038725       26.031761       28.253958       29.603853       29.926769       29.937542       29.613497       29.104616       27.476063       24.815659       21.102127       18.058146       15.996167       15.172655       14.674317       14.538836       14.576812       15.400654       17.450481       20.797131       23.866751       26.254517       27.804585       29.273672       30.879353       32.690079       34.375362       35.912498       37.363468       39.321190       42.098843       45.763329       50.357037       55.893448       62.681862       69.900742       77.254280       84.759003       94.304504       107.24111       123.72772       142.98601       164.28886       187.64284       213.42444       241.95322       272.99600       305.70456       339.07816       372.98117       407.20782       441.67230       475.90833       510.41235       546.09235       582.37128       617.70154       649.44189       677.38452       700.90533       719.59344       733.36102       742.31006       746.22595       745.53967       743.42224       742.02686       741.07867       739.45062       730.85052       711.46545       683.47009       650.76880       613.29840       572.33533       531.19733       490.35004       450.23914       409.43402       368.59210       327.92896       286.47974       244.82190       203.60944       166.55589       133.85217       105.92101       80.742874       58.661098       39.597153       26.224546       18.012671       14.694780       11.358747       7.7944851       3.4556222       1.0227615      0.69259614      0.69259608      0.75979990       1.3333584       1.9319464       2.8992023       4.1169744       5.5450258       6.4938674       6.6656709       6.6654310       6.6496143       6.4795165       6.2922521       6.0386572       5.7308836       5.3888869       5.0149093       4.6138411       4.1961684       3.7463174       3.2699478       2.7699499       2.3005390       1.8801055       1.5196702       1.1951314      0.90305960      0.64073491      0.44087788      0.31029275      0.25178906      0.20938431      0.15800737      9.05609578E-02  3.63825597E-02  1.32560767E-02  7.74646923E-03  7.90193770E-03  8.49793013E-03  5.75560611E-03  2.71192659E-03  1.87220646E-03  1.70461566E-03  2.41457438E-03  5.05028199E-03  1.05564240E-02  1.47964600E-02  1.43361874E-02  9.16159060E-03  2.75059487E-03  2.34499617E-04  5.61553179E-06  6.96666666E-06  9.94720613E-05  1.36508635E-04  1.03435138E-06   0.0000000       0.0000000       0.0000000       0.0000000       0.0000000       0.0000000       0.0000000       0.0000000       0.0000000       0.0000000       0.0000000       0.0000000       0.0000000       0.0000000       0.0000000       0.0000000       0.0000000       0.0000000       0.0000000       0.0000000       0.0000000       0.0000000       0.0000000       0.0000000       0.0000000       0.0000000       0.0000000       0.0000000       0.0000000       0.0000000       0.0000000       0.0000000       0.0000000       0.0000000       0.0000000       0.0000000       0.0000000       0.0000000       0.0000000       0.0000000       0.0000000       0.0000000       0.0000000       0.0000000       0.0000000       0.0000000       0.0000000       0.0000000       0.0000000       0.0000000       0.0000000       0.0000000       0.0000000       0.0000000       0.0000000       0.0000000       0.0000000       0.0000000       0.0000000       0.0000000       0.0000000       0.0000000       0.0000000       0.0000000       0.0000000       0.0000000       0.0000000       0.0000000       0.0000000       0.0000000       0.0000000       0.0000000       0.0000000       0.0000000       0.0000000       0.0000000       0.0000000       0.0000000       0.0000000       0.0000000       0.0000000       0.0000000       0.0000000       0.0000000       0.0000000       0.0000000       0.0000000       0.0000000    
  9.59141398E-05  6.65138868E-05  1.95181983E-05  5.43854924E-07  6.84410793E-07  1.58104740E-06  3.18071216E-06  5.41454028E-06  7.87738918E-06  9.33475712E-06  9.94159836E-06  9.94149468E-06  4.10883804E-04  1.91500771E-03  4.51780297E-03  9.80033912E-03  1.72209181E-02  2.58432534E-02  3.15852463E-02  3.35710384E-02  3.36882249E-02  3.19587886E-02  2.29975581E-02  1.01626813E-02  2.53104535E-03  4.73579916E-04  1.18349458E-03  2.00402501E-04  2.96854327E-04  3.59734040E-05  9.40302387E-02  0.70094866       1.7095760       2.9014339       4.2720432       5.7932630       7.3791671       9.0052814       10.654597       12.297589       13.922888       15.473905       17.327581       19.412588       21.719616       23.434126       24.478226       24.733929       24.736504       24.461420       24.029839       22.744047       20.681047       17.824160       15.554249       14.165504       13.740795       13.537118       13.524374       13.560507       14.632638       16.834888       20.244545       23.310125       25.601103       26.963762       28.068394       29.107954       30.158337       30.927078       31.431053       31.818855       32.635670       34.374752       37.203697       41.030472       45.834194       51.919483       58.576054       65.562325       72.903091       82.323555       95.059265       111.25855       130.24319       151.37218       174.67596       200.41241       228.79999       259.64151       292.31924       326.10489       360.85376       396.38297       432.58786       469.03143       506.02039       544.16315       582.91687       620.85919       655.62030       686.91132       714.25940       737.57330       756.67877       771.22778       779.78912       782.92444       784.25385       786.18665       787.68103       788.14709       784.01898       766.54541       739.65210       707.36127       669.60107       627.71704       585.33325       542.91949       500.94598       457.89258       414.46838       370.90433       326.02878       280.50806       235.09494       194.10547       157.75838       126.54429       98.192345       73.108864       51.234493       35.319687       24.843620       19.556540       14.527654       9.5598154       4.1059737      0.98988771      0.56153536      0.56156707      0.67658752       1.6838090       2.9218626       4.5281000       6.3301167       8.2538509       9.5238152       9.7564621       9.7568798       9.7421846       9.5547085       9.3842278       9.0872545       8.6711655       8.1562290       7.5930200       6.9954658       6.3816514       5.7105737       4.9889607       4.2214756       3.5005832       2.8569009       2.3081388       1.8134108       1.3665811      0.96362424      0.65662748      0.45669070      0.36831063      0.30440751      0.22610758      0.12247265      3.97203006E-02  8.88277497E-03  2.77056010E-03  3.18287336E-03  5.88622270E-03  3.73974768E-03  9.28737805E-04  1.17389520E-03  1.88596535E-03  3.88591108E-03  7.58010522E-03  1.31610455E-02  1.71274208E-02  1.62717775E-02  1.05678523E-02  3.62311443E-03  5.73469675E-04  1.37328243E-05  1.70370222E-05  9.92368732E-05  1.36126808E-04  1.03145862E-06   0.0000000       0.0000000       0.0000000       0.0000000       0.0000000       0.0000000       0.0000000       0.0000000       0.0000000       0.0000000       0.0000000       0.0000000       0.0000000       0.0000000       0.0000000       0.0000000       0.0000000       0.0000000       0.0000000       0.0000000       0.0000000       0.0000000       0.0000000       0.0000000       0.0000000       0.0000000       0.0000000       0.0000000       0.0000000       0.0000000       0.0000000       0.0000000       0.0000000       0.0000000       0.0000000       0.0000000       0.0000000       0.0000000       0.0000000       0.0000000       0.0000000       0.0000000       0.0000000       0.0000000       0.0000000       0.0000000       0.0000000       0.0000000       0.0000000       0.0000000       0.0000000       0.0000000       0.0000000       0.0000000       0.0000000       0.0000000       0.0000000       0.0000000       0.0000000       0.0000000       0.0000000       0.0000000       0.0000000       0.0000000       0.0000000       0.0000000       0.0000000       0.0000000       0.0000000       0.0000000       0.0000000       0.0000000       0.0000000       0.0000000       0.0000000       0.0000000       0.0000000       0.0000000       0.0000000       0.0000000       0.0000000       0.0000000       0.0000000       0.0000000       0.0000000       0.0000000       0.0000000       0.0000000    
  4.10717941E-04  2.84432346E-04  8.30212521E-05  1.61360401E-06  6.95129984E-07  3.39144890E-06  4.80580684E-06  1.51110112E-06  4.76619668E-08  6.24801323E-05  3.31232324E-04  9.20835824E-04  2.33257748E-03  4.90599824E-03  8.91655404E-03  1.67422667E-02  2.75665782E-02  4.00583073E-02  4.85601611E-02  5.17299473E-02  5.19270711E-02  4.92895618E-02  3.55645865E-02  1.58155002E-02  4.03394829E-03  7.62707612E-04  1.90603419E-03  3.14467296E-04  4.42427146E-04  5.36148546E-05  7.24289715E-02  0.54061967       1.3199254       2.2310309       3.2738259       4.4287057       5.6586351       6.9463353       8.2824697       9.6252823       10.967673       12.263015       13.831504       15.613600       17.601019       19.115711       20.093578       20.448969       20.568697       20.457802       20.203474       19.337759       17.926508       15.968363       14.449680       13.639227       13.497063       13.493508       13.691418       13.931086       15.163691       17.453093       20.879980       23.896893       26.074635       27.257061       28.136621       28.912657       29.662848       30.078238       30.170378       30.170500       30.414288       31.498682       33.656754       36.764618       40.814301       46.119827       51.973160       58.139835       64.656441       73.271118       85.240295       100.72083       119.05901       139.63333       162.50552       187.87396       215.90875       246.43402       278.99362       313.04471       348.44794       384.98956       422.49249       460.55096       499.42496       539.65625       580.73419       621.27759       658.99097       693.60510       724.78271       752.67572       776.93164       797.32178       813.51147       825.25592       833.19727       839.08240       841.14844       841.73334       837.83289       821.82477       797.32349       766.17853       728.64874       686.08875       642.79077       599.10480       555.51459       510.40915       464.54651       418.17419       369.92783       320.55966       270.91846       225.88832       185.71779       150.96490       119.14644       90.732658       65.694260       46.750347       33.418335       25.480825       18.232855       11.497928       4.7486959      0.83475566      0.29092187      0.29096314      0.46364585       1.9960833       4.0104365       6.3858471       8.8847446       11.390675       13.042095       13.361210       13.365900       13.348292       13.125963       12.947271       12.572371       12.005915       11.270067       10.471741       9.6363010       8.7909327       7.8661695       6.8694148       5.8076520       4.8102741       3.9198453       3.1606600       2.4763880       1.8586984       1.3019364      0.87897146      0.60533595      0.48741031      0.40311944      0.29800645      0.15668219      4.43906300E-02  8.12974200E-03  3.18504940E-03  3.79923591E-03  7.67711736E-03  4.72960761E-03  9.11737967E-04  1.53365743E-03  3.67401470E-03  6.77354913E-03  1.01448651E-02  1.38316527E-02  1.59992967E-02  1.48321828E-02  9.95873380E-03  4.21606703E-03  1.17271533E-03  1.85757366E-04  9.94173461E-05  4.41875090E-05  6.00780550E-05  4.55222676E-07   0.0000000       0.0000000       0.0000000       0.0000000       0.0000000       0.0000000       0.0000000       0.0000000       0.0000000       0.0000000       0.0000000       0.0000000       0.0000000       0.0000000       0.0000000       0.0000000       0.0000000       0.0000000       0.0000000       0.0000000       0.0000000       0.0000000       0.0000000       0.0000000       0.0000000       0.0000000       0.0000000       0.0000000       0.0000000       0.0000000       0.0000000       0.0000000       0.0000000       0.0000000       0.0000000       0.0000000       0.0000000       0.0000000       0.0000000       0.0000000       0.0000000       0.0000000       0.0000000       0.0000000       0.0000000       0.0000000       0.0000000       0.0000000       0.0000000       0.0000000       0.0000000       0.0000000       0.0000000       0.0000000       0.0000000       0.0000000       0.0000000       0.0000000       0.0000000       0.0000000       0.0000000       0.0000000       0.0000000       0.0000000       0.0000000       0.0000000       0.0000000       0.0000000       0.0000000       0.0000000       0.0000000       0.0000000       0.0000000       0.0000000       0.0000000       0.0000000       0.0000000       0.0000000       0.0000000       0.0000000       0.0000000       0.0000000       0.0000000       0.0000000       0.0000000       0.0000000       0.0000000       0.0000000    
[...]
   0.0000000       0.0000000       0.0000000       0.0000000       0.0000000       0.0000000       0.0000000       0.0000000       0.0000000       0.0000000       0.0000000       0.0000000       0.0000000       0.0000000       0.0000000       0.0000000       0.0000000       0.0000000       0.0000000       0.0000000       0.0000000       0.0000000       0.0000000       0.0000000       0.0000000       0.0000000       0.0000000       0.0000000       0.0000000       0.0000000       0.0000000       0.0000000       0.0000000       0.0000000       0.0000000       0.0000000       0.0000000       0.0000000       0.0000000       0.0000000       0.0000000       0.0000000       0.0000000       0.0000000       0.0000000       0.0000000       0.0000000       0.0000000       0.0000000       0.0000000       0.0000000       0.0000000       0.0000000       0.0000000       0.0000000       0.0000000       0.0000000       0.0000000       0.0000000       0.0000000       0.0000000       0.0000000       0.0000000       0.0000000       0.0000000       0.0000000       0.0000000       0.0000000       0.0000000       0.0000000       0.0000000       0.0000000       0.0000000       0.0000000       0.0000000       0.0000000       0.0000000       0.0000000       0.0000000       0.0000000       0.0000000       0.0000000       0.0000000       0.0000000       0.0000000       0.0000000       0.0000000       0.0000000       0.0000000       0.0000000       0.0000000       0.0000000       0.0000000       0.0000000       0.0000000       0.0000000       0.0000000       0.0000000       0.0000000       0.0000000       0.0000000       0.0000000       0.0000000       0.0000000       0.0000000       0.0000000       0.0000000       0.0000000       0.0000000       0.0000000       0.0000000       0.0000000       0.0000000       0.0000000       0.0000000       0.0000000       0.0000000       0.0000000       0.0000000       0.0000000       0.0000000       0.0000000       0.0000000       0.0000000       0.0000000       0.0000000       0.0000000       0.0000000       0.0000000       0.0000000       0.0000000       0.0000000       0.0000000       0.0000000       0.0000000       0.0000000       0.0000000       0.0000000       0.0000000       0.0000000       0.0000000       0.0000000       0.0000000       0.0000000       0.0000000       0.0000000       0.0000000       0.0000000       0.0000000       0.0000000       0.0000000       0.0000000       0.0000000       0.0000000       0.0000000       0.0000000       0.0000000       0.0000000       0.0000000       0.0000000       0.0000000       0.0000000       0.0000000       0.0000000       0.0000000       0.0000000       0.0000000       0.0000000       0.0000000       0.0000000       0.0000000       0.0000000       0.0000000       0.0000000       0.0000000       0.0000000       0.0000000       0.0000000       0.0000000       0.0000000       0.0000000       0.0000000       0.0000000       0.0000000       0.0000000       0.0000000       0.0000000       0.0000000       0.0000000       0.0000000       0.0000000       0.0000000       0.0000000       0.0000000       0.0000000       0.0000000       0.0000000       0.0000000       0.0000000       0.0000000       0.0000000       0.0000000       0.0000000       0.0000000       0.0000000       0.0000000       0.0000000       0.0000000       0.0000000       0.0000000       0.0000000       0.0000000       0.0000000       0.0000000       0.0000000       0.0000000       0.0000000       0.0000000       0.0000000       0.0000000       0.0000000       0.0000000       0.0000000       0.0000000       0.0000000       0.0000000       0.0000000       0.0000000       0.0000000       0.0000000       0.0000000       0.0000000       0.0000000       0.0000000       0.0000000       0.0000000       0.0000000       0.0000000       0.0000000       0.0000000       0.0000000       0.0000000       0.0000000       0.0000000       0.0000000       0.0000000       0.0000000       0.0000000       0.0000000       0.0000000       0.0000000       0.0000000       0.0000000       0.0000000       0.0000000       0.0000000       0.0000000       0.0000000       0.0000000       0.0000000       0.0000000       0.0000000       0.0000000       0.0000000       0.0000000       0.0000000       0.0000000       0.0000000       0.0000000       0.0000000       0.0000000       0.0000000       0.0000000       0.0000000       0.0000000       0.0000000       0.0000000       0.0000000       0.0000000       0.0000000       0.0000000       0.0000000       0.0000000       0.0000000       0.0000000    
   0.0000000       0.0000000       0.0000000       0.0000000       0.0000000       0.0000000       0.0000000       0.0000000       0.0000000       0.0000000       0.0000000       0.0000000       0.0000000       0.0000000       0.0000000       0.0000000       0.0000000       0.0000000       0.0000000       0.0000000       0.0000000       0.0000000       0.0000000       0.0000000       0.0000000       0.0000000       0.0000000       0.0000000       0.0000000       0.0000000       0.0000000       0.0000000       0.0000000       0.0000000       0.0000000       0.0000000       0.0000000       0.0000000       0.0000000       0.0000000       0.0000000       0.0000000       0.0000000       0.0000000       0.0000000       0.0000000       0.0000000       0.0000000       0.0000000       0.0000000       0.0000000       0.0000000       0.0000000       0.0000000       0.0000000       0.0000000       0.0000000       0.0000000       0.0000000       0.0000000       0.0000000       0.0000000       0.0000000       0.0000000       0.0000000       0.0000000       0.0000000       0.0000000       0.0000000       0.0000000       0.0000000       0.0000000       0.0000000       0.0000000       0.0000000       0.0000000       0.0000000       0.0000000       0.0000000       0.0000000       0.0000000       0.0000000       0.0000000       0.0000000       0.0000000       0.0000000       0.0000000       0.0000000       0.0000000       0.0000000       0.0000000       0.0000000       0.0000000       0.0000000       0.0000000       0.0000000       0.0000000       0.0000000       0.0000000       0.0000000       0.0000000       0.0000000       0.0000000       0.0000000       0.0000000       0.0000000       0.0000000       0.0000000       0.0000000       0.0000000       0.0000000       0.0000000       0.0000000       0.0000000       0.0000000       0.0000000       0.0000000       0.0000000       0.0000000       0.0000000       0.0000000       0.0000000       0.0000000       0.0000000       0.0000000       0.0000000       0.0000000       0.0000000       0.0000000       0.0000000       0.0000000       0.0000000       0.0000000       0.0000000       0.0000000       0.0000000       0.0000000       0.0000000       0.0000000       0.0000000       0.0000000       0.0000000       0.0000000       0.0000000       0.0000000       0.0000000       0.0000000       0.0000000       0.0000000       0.0000000       0.0000000       0.0000000       0.0000000       0.0000000       0.0000000       0.0000000       0.0000000       0.0000000       0.0000000       0.0000000       0.0000000       0.0000000       0.0000000       0.0000000       0.0000000       0.0000000       0.0000000       0.0000000       0.0000000       0.0000000       0.0000000       0.0000000       0.0000000       0.0000000       0.0000000       0.0000000       0.0000000       0.0000000       0.0000000       0.0000000       0.0000000       0.0000000       0.0000000       0.0000000       0.0000000       0.0000000       0.0000000       0.0000000       0.0000000       0.0000000       0.0000000       0.0000000       0.0000000       0.0000000       0.0000000       0.0000000       0.0000000       0.0000000       0.0000000       0.0000000       0.0000000       0.0000000       0.0000000       0.0000000       0.0000000       0.0000000       0.0000000       0.0000000       0.0000000       0.0000000       0.0000000       0.0000000       0.0000000       0.0000000       0.0000000       0.0000000       0.0000000       0.0000000       0.0000000       0.0000000       0.0000000       0.0000000       0.0000000       0.0000000       0.0000000       0.0000000       0.0000000       0.0000000       0.0000000       0.0000000       0.0000000       0.0000000       0.0000000       0.0000000       0.0000000       0.0000000       0.0000000       0.0000000       0.0000000       0.0000000       0.0000000       0.0000000       0.0000000       0.0000000       0.0000000       0.0000000       0.0000000       0.0000000       0.0000000       0.0000000       0.0000000       0.0000000       0.0000000       0.0000000       0.0000000       0.0000000       0.0000000       0.0000000       0.0000000       0.0000000       0.0000000       0.0000000       0.0000000       0.0000000       0.0000000       0.0000000       0.0000000       0.0000000       0.0000000       0.0000000       0.0000000       0.0000000       0.0000000       0.0000000       0.0000000       0.0000000       0.0000000       0.0000000       0.0000000       0.0000000       0.0000000       0.0000000       0.0000000       0.0000000       0.0000000    
   0.0000000       0.0000000       0.0000000       0.0000000       0.0000000       0.0000000       0.0000000       0.0000000       0.0000000       0.0000000       0.0000000       0.0000000       0.0000000       0.0000000       0.0000000       0.0000000       0.0000000       0.0000000       0.0000000       0.0000000       0.0000000       0.0000000       0.0000000       0.0000000       0.0000000       0.0000000       0.0000000       0.0000000       0.0000000       0.0000000       0.0000000       0.0000000       0.0000000       0.0000000       0.0000000       0.0000000       0.0000000       0.0000000       0.0000000       0.0000000       0.0000000       0.0000000       0.0000000       0.0000000       0.0000000       0.0000000       0.0000000       0.0000000       0.0000000       0.0000000       0.0000000       0.0000000       0.0000000       0.0000000       0.0000000       0.0000000       0.0000000       0.0000000       0.0000000       0.0000000       0.0000000       0.0000000       0.0000000       0.0000000       0.0000000       0.0000000       0.0000000       0.0000000       0.0000000       0.0000000       0.0000000       0.0000000       0.0000000       0.0000000       0.0000000       0.0000000       0.0000000       0.0000000       0.0000000       0.0000000       0.0000000       0.0000000       0.0000000       0.0000000       0.0000000       0.0000000       0.0000000       0.0000000       0.0000000       0.0000000       0.0000000       0.0000000       0.0000000       0.0000000       0.0000000       0.0000000       0.0000000       0.0000000       0.0000000       0.0000000       0.0000000       0.0000000       0.0000000       0.0000000       0.0000000       0.0000000       0.0000000       0.0000000       0.0000000       0.0000000       0.0000000       0.0000000       0.0000000       0.0000000       0.0000000       0.0000000       0.0000000       0.0000000       0.0000000       0.0000000       0.0000000       0.0000000       0.0000000       0.0000000       0.0000000       0.0000000       0.0000000       0.0000000       0.0000000       0.0000000       0.0000000       0.0000000       0.0000000       0.0000000       0.0000000       0.0000000       0.0000000       0.0000000       0.0000000       0.0000000       0.0000000       0.0000000       0.0000000       0.0000000       0.0000000       0.0000000       0.0000000       0.0000000       0.0000000       0.0000000       0.0000000       0.0000000       0.0000000       0.0000000       0.0000000       0.0000000       0.0000000       0.0000000       0.0000000       0.0000000       0.0000000       0.0000000       0.0000000       0.0000000       0.0000000       0.0000000       0.0000000       0.0000000       0.0000000       0.0000000       0.0000000       0.0000000       0.0000000       0.0000000       0.0000000       0.0000000       0.0000000       0.0000000       0.0000000       0.0000000       0.0000000       0.0000000       0.0000000       0.0000000       0.0000000       0.0000000       0.0000000       0.0000000       0.0000000       0.0000000       0.0000000       0.0000000       0.0000000       0.0000000       0.0000000       0.0000000       0.0000000       0.0000000       0.0000000       0.0000000       0.0000000       0.0000000       0.0000000       0.0000000       0.0000000       0.0000000       0.0000000       0.0000000       0.0000000       0.0000000       0.0000000       0.0000000       0.0000000       0.0000000       0.0000000       0.0000000       0.0000000       0.0000000       0.0000000       0.0000000       0.0000000       0.0000000       0.0000000       0.0000000       0.0000000       0.0000000       0.0000000       0.0000000       0.0000000       0.0000000       0.0000000       0.0000000       0.0000000       0.0000000       0.0000000       0.0000000       0.0000000       0.0000000       0.0000000       0.0000000       0.0000000       0.0000000       0.0000000       0.0000000       0.0000000       0.0000000       0.0000000       0.0000000       0.0000000       0.0000000       0.0000000       0.0000000       0.0000000       0.0000000       0.0000000       0.0000000       0.0000000       0.0000000       0.0000000       0.0000000       0.0000000       0.0000000       0.0000000       0.0000000       0.0000000       0.0000000       0.0000000       0.0000000       0.0000000       0.0000000       0.0000000       0.0000000       0.0000000       0.0000000       0.0000000       0.0000000       0.0000000       0.0000000       0.0000000       0.0000000       0.0000000       0.0000000       0.0000000       0.0000000       0.0000000    
   0.0000000       0.0000000       0.0000000       0.0000000       0.0000000       0.0000000       0.0000000       0.0000000       0.0000000       0.0000000       0.0000000       0.0000000       0.0000000       0.0000000       0.0000000       0.0000000       0.0000000       0.0000000       0.0000000       0.0000000       0.0000000       0.0000000       0.0000000       0.0000000       0.0000000       0.0000000       0.0000000       0.0000000       0.0000000       0.0000000       0.0000000       0.0000000       0.0000000       0.0000000       0.0000000       0.0000000       0.0000000       0.0000000       0.0000000       0.0000000       0.0000000       0.0000000       0.0000000       0.0000000       0.0000000       0.0000000       0.0000000       0.0000000       0.0000000       0.0000000       0.0000000       0.0000000       0.0000000       0.0000000       0.0000000       0.0000000       0.0000000       0.0000000       0.0000000       0.0000000       0.0000000       0.0000000       0.0000000       0.0000000       0.0000000       0.0000000       0.0000000       0.0000000       0.0000000       0.0000000       0.0000000       0.0000000       0.0000000       0.0000000       0.0000000       0.0000000       0.0000000       0.0000000       0.0000000       0.0000000       0.0000000       0.0000000       0.0000000       0.0000000       0.0000000       0.0000000       0.0000000       0.0000000       0.0000000       0.0000000       0.0000000       0.0000000       0.0000000       0.0000000       0.0000000       0.0000000       0.0000000       0.0000000       0.0000000       0.0000000       0.0000000       0.0000000       0.0000000       0.0000000       0.0000000       0.0000000       0.0000000       0.0000000       0.0000000       0.0000000       0.0000000       0.0000000       0.0000000       0.0000000       0.0000000       0.0000000       0.0000000       0.0000000       0.0000000       0.0000000       0.0000000       0.0000000       0.0000000       0.0000000       0.0000000       0.0000000       0.0000000       0.0000000       0.0000000       0.0000000       0.0000000       0.0000000       0.0000000       0.0000000       0.0000000       0.0000000       0.0000000       0.0000000       0.0000000       0.0000000       0.0000000       0.0000000       0.0000000       0.0000000       0.0000000       0.0000000       0.0000000       0.0000000       0.0000000       0.0000000       0.0000000       0.0000000       0.0000000       0.0000000       0.0000000       0.0000000       0.0000000       0.0000000       0.0000000       0.0000000       0.0000000       0.0000000       0.0000000       0.0000000       0.0000000       0.0000000       0.0000000       0.0000000       0.0000000       0.0000000       0.0000000       0.0000000       0.0000000       0.0000000       0.0000000       0.0000000       0.0000000       0.0000000       0.0000000       0.0000000       0.0000000       0.0000000       0.0000000       0.0000000       0.0000000       0.0000000       0.0000000       0.0000000       0.0000000       0.0000000       0.0000000       0.0000000       0.0000000       0.0000000       0.0000000       0.0000000       0.0000000       0.0000000       0.0000000       0.0000000       0.0000000       0.0000000       0.0000000       0.0000000       0.0000000       0.0000000       0.0000000       0.0000000       0.0000000       0.0000000       0.0000000       0.0000000       0.0000000       0.0000000       0.0000000       0.0000000       0.0000000       0.0000000       0.0000000       0.0000000       0.0000000       0.0000000       0.0000000       0.0000000       0.0000000       0.0000000       0.0000000       0.0000000       0.0000000       0.0000000       0.0000000       0.0000000       0.0000000       0.0000000       0.0000000       0.0000000       0.0000000       0.0000000       0.0000000       0.0000000       0.0000000       0.0000000       0.0000000       0.0000000       0.0000000       0.0000000       0.0000000       0.0000000       0.0000000       0.0000000       0.0000000       0.0000000       0.0000000       0.0000000       0.0000000       0.0000000       0.0000000       0.0000000       0.0000000       0.0000000       0.0000000       0.0000000       0.0000000       0.0000000       0.0000000       0.0000000       0.0000000       0.0000000       0.0000000       0.0000000       0.0000000       0.0000000       0.0000000       0.0000000       0.0000000       0.0000000       0.0000000       0.0000000       0.0000000       0.0000000       0.0000000       0.0000000       0.0000000       0.0000000       0.0000000    
