    20110522       60000
 FLEXPWRF V5.0
        3600        3600        1200           0
  -46.667702       42.920399             168         168  0.67656374      0.16769406    
          18   15.000000       50.000000      100.000000       200.00000       300.00000       400.00000       500.00000      1000.00000       2000.0000       3000.0000       4000.0000       5000.0000       6000.0000       7000.0000       8000.0000       9000.0000      10000.0000       15000.000    
    20110522       60000
           3           2           1
           1
 WD_I-131  
           1
 DD_I-131  
          18
 I-131     
           1
           0       21600           1
  -17.360001       64.410004      -17.299999       64.430000      10.0000000       30.000000    
      100000           1
 FKS_RELEASE_SCENARIO1                        
  1.00000000    
  1.00000000    
  1.00000000    
           0           1           0
           1   999999999
   0.0000000       0.0000000       0.0000000       0.0000000       0.0000000       0.0000000       0.0000000       0.0000000       0.0000000       0.0000000       0.0000000       0.0000000       0.0000000       0.0000000       0.0000000       0.0000000       0.0000000       0.0000000       0.0000000       0.0000000       0.0000000       0.0000000       0.0000000       0.0000000       0.0000000       0.0000000       0.0000000       0.0000000       0.0000000       0.0000000       0.0000000       0.0000000       0.0000000       0.0000000       0.0000000       0.0000000       0.0000000       0.0000000       0.0000000       0.0000000       0.0000000       0.0000000       0.0000000       0.0000000       0.0000000       0.0000000       0.0000000      2.52354005E-03  1.32070268E-02  1.80118326E-02  1.15145894E-03  3.05141907E-06   0.0000000       0.0000000      6.08797325E-03  3.02969497E-02  3.69983651E-02  2.79294630E-03   0.0000000      1.24560902E-05  4.41908451E-05  2.23594951E-03  8.25006980E-03  8.69326119E-04  8.00072485E-06   0.0000000       0.0000000       0.0000000       0.0000000       0.0000000      1.03170332E-03  5.74772526E-03  2.27530152E-02  7.98449367E-02  1.02242120E-02   0.0000000      1.74935954E-03  8.97163805E-03  1.28858571E-03   0.0000000       0.0000000      0.47656167       4.8853049       16.763508       29.646278       45.174610       56.736195       38.142078       9.6462765      0.80402565       0.0000000      2.79433071E-03  0.23886682       2.7618592       11.562861       28.717232       64.309143       136.66553       220.40736       265.77069       271.52957       272.05389       276.80801       295.63367       290.42917       223.94615       164.39584       146.91870       144.01947       135.00670       106.85098       72.305183       45.524277       22.946829       10.130138       9.9893723       8.6849527       5.0130043       2.0146236      0.35230768      1.56731289E-02  5.80291497E-03  2.69634825E-07   0.0000000       0.0000000       0.0000000      8.46173167E-02   3.8617966       51.105152       144.26627       233.86496       287.99411       321.16525       354.81497       376.18271       320.43677       168.06810       46.093647       5.4969802       11.387804       55.225780       93.291534       75.996590       38.132267       63.499863       132.68626       150.56384       108.55852       59.623955       38.527603       42.730049       45.146347       33.286861       16.098360       6.2364321       5.0761266       3.5014358      0.79282832      5.16800880E-02  0.54459023       1.8378488       5.0421343       11.811763       20.868803       36.617302       65.335785       93.928535       110.45650    
   0.0000000       0.0000000       0.0000000       0.0000000       0.0000000       0.0000000       0.0000000       0.0000000       0.0000000       0.0000000       0.0000000       0.0000000       0.0000000       0.0000000       0.0000000       0.0000000       0.0000000       0.0000000       0.0000000       0.0000000       0.0000000       0.0000000       0.0000000       0.0000000       0.0000000       0.0000000       0.0000000       0.0000000       0.0000000       0.0000000       0.0000000       0.0000000       0.0000000       0.0000000       0.0000000       0.0000000       0.0000000       0.0000000       0.0000000       0.0000000       0.0000000       0.0000000       0.0000000       0.0000000       0.0000000       0.0000000       0.0000000       0.0000000      3.16274636E-05  1.05632578E-04  5.35464860E-05  3.12460315E-06   0.0000000       0.0000000      1.09503875E-04  3.48596135E-04  2.66417464E-05   0.0000000       0.0000000      1.27548337E-05  4.52507193E-05  4.05603214E-06   0.0000000       0.0000000       0.0000000       0.0000000       0.0000000       0.0000000       0.0000000       0.0000000       0.0000000       0.0000000      6.65503670E-04  3.10924975E-03  4.01464204E-04   0.0000000      1.79131550E-03  9.18680988E-03  1.31949130E-03   0.0000000       0.0000000      5.94169041E-03  3.39172110E-02  5.54315094E-03   0.0000000       1.1848012       8.7248793       9.9903641       3.9048374       1.2749971       7.4311595       13.569012       7.3332391       12.656103       61.535435       145.25621       247.45227       364.77832       449.56610       475.11853       481.05911       475.36942       450.31873       433.98596       405.62512       340.24960       284.60126       245.58638       209.71008       188.63551       165.43776       133.71179       97.211380       49.044830       12.144337       2.1915443      0.39963219      1.99852069E-03  2.48931727E-04  5.05163334E-03  1.75699703E-02  5.95178129E-03  2.76101673E-07   0.0000000      1.83622689E-07  3.97187796E-06  7.68941715E-02   3.3587294       42.371471       119.83984       199.41930       261.89325       310.36218       342.03638       357.64337       332.19794       215.40936       69.246292       7.1436963       5.3956323       29.585943       58.749176       58.777206       29.460329       30.018360       73.943497       97.112442       82.175858       60.815174       59.486034       90.188545       119.86813       109.72939       67.349808       23.196863       2.7364697      9.99180824E-02  7.78614432E-02  0.17771161      0.50030822      0.38343292      0.22482717       1.1392020       3.2406075       11.415967       33.973213       61.056122       76.784370    
   0.0000000       0.0000000       0.0000000       0.0000000       0.0000000       0.0000000       0.0000000       0.0000000       0.0000000       0.0000000       0.0000000       0.0000000       0.0000000       0.0000000       0.0000000       0.0000000       0.0000000       0.0000000       0.0000000       0.0000000       0.0000000       0.0000000       0.0000000       0.0000000       0.0000000       0.0000000       0.0000000       0.0000000       0.0000000       0.0000000       0.0000000       0.0000000       0.0000000       0.0000000       0.0000000       0.0000000       0.0000000       0.0000000       0.0000000       0.0000000       0.0000000       0.0000000       0.0000000       0.0000000       0.0000000       0.0000000       0.0000000       0.0000000       0.0000000       0.0000000       0.0000000       0.0000000       0.0000000       0.0000000       0.0000000       0.0000000       0.0000000       0.0000000       0.0000000       0.0000000       0.0000000       0.0000000       0.0000000       0.0000000       0.0000000       0.0000000       0.0000000       0.0000000       0.0000000       0.0000000       0.0000000       0.0000000       0.0000000       0.0000000       0.0000000       0.0000000       0.0000000       0.0000000       0.0000000       0.0000000       0.0000000      6.23015640E-03  3.55638787E-02  5.81226870E-03  1.95522001E-03  1.19732572E-02  2.09909468E-03  8.82795732E-03  5.83032221E-02   2.8967276       26.098839       49.226593       27.015800       19.359398       97.363518       232.55017       360.84540       452.90945       476.77621       450.69690       447.43454       456.53561       447.76367       441.68698       423.99887       362.85635       290.32803       234.65274       189.85504       168.48557       163.70285       151.38651       116.91556       58.345688       12.583649      0.74453580      2.45514531E-02  1.36930970E-02  5.32642426E-03  4.42735152E-03  1.66264432E-03  3.52791612E-05   0.0000000      2.17425713E-06  4.51562883E-05  5.39890258E-04  1.26891220E-02  0.59554923       15.815513       56.845253       113.63605       184.66139       259.76532       311.63431       343.22052       343.37991       249.99324       94.502274       12.892254      0.41211471       5.5758181       16.131323       22.186640       13.186453       9.8285780       24.869278       34.274349       38.621349       57.044853       94.908089       160.14676       218.26744       212.30463       140.57434       52.409229       7.0847802       0.0000000      2.99632957E-04  0.17319967      0.57239294      0.50091106      0.12118230       0.0000000       0.0000000       1.4569973       12.406568       37.581879       59.676128    
   0.0000000       0.0000000       0.0000000       0.0000000       0.0000000       0.0000000       0.0000000       0.0000000       0.0000000       0.0000000       0.0000000       0.0000000       0.0000000       0.0000000       0.0000000       0.0000000       0.0000000       0.0000000       0.0000000       0.0000000       0.0000000       0.0000000       0.0000000       0.0000000       0.0000000       0.0000000       0.0000000       0.0000000       0.0000000       0.0000000       0.0000000       0.0000000       0.0000000       0.0000000       0.0000000       0.0000000       0.0000000       0.0000000       0.0000000       0.0000000       0.0000000       0.0000000       0.0000000       0.0000000       0.0000000       0.0000000       0.0000000       0.0000000       0.0000000       0.0000000       0.0000000       0.0000000       0.0000000       0.0000000       0.0000000       0.0000000       0.0000000       0.0000000       0.0000000       0.0000000       0.0000000       0.0000000       0.0000000       0.0000000       0.0000000       0.0000000       0.0000000       0.0000000       0.0000000       0.0000000       0.0000000       0.0000000       0.0000000       0.0000000       0.0000000       0.0000000       0.0000000       0.0000000       0.0000000       0.0000000       0.0000000       0.0000000       0.0000000       0.0000000      2.09935731E-03  1.28559135E-02  2.25383881E-03   0.0000000       0.0000000       2.9460261       27.006008       53.428123       31.769442       11.929352       54.892128       137.88954       211.45049       250.11714       240.62390       206.82715       203.42070       227.14627       256.49304       295.45901       315.49808       278.51022       214.68156       170.28664       141.97083       130.48640       140.30246       143.49565       112.40685       55.615986       13.200218       1.1168674      9.25474837E-02  4.00149673E-02  5.46890264E-03  1.74165086E-03  1.96505543E-02  7.20781088E-03   0.0000000      2.33454216E-06  7.62544631E-04  1.72735676E-02  5.03564849E-02  0.11307094      0.91630602       9.0534344       28.540752       76.422440       159.60849       248.68221       314.74451       314.23767       212.81139       75.405884       9.7989798      1.14664773E-03  5.46095893E-02  5.79495467E-02   1.6022000       1.8072673       1.5035002       2.9492402       3.1772530       14.006074       62.724178       153.67284       259.67017       330.69431       320.46140       222.45520       95.936913       19.847490      0.82317853      1.54528860E-02  5.73035851E-02  0.15839019      0.15537465      5.56133799E-02  1.01652108E-02  1.73389283E-03   0.0000000       5.0039015       31.207741       65.723976    
   0.0000000       0.0000000       0.0000000       0.0000000       0.0000000       0.0000000       0.0000000       0.0000000       0.0000000       0.0000000       0.0000000       0.0000000       0.0000000       0.0000000       0.0000000       0.0000000       0.0000000       0.0000000       0.0000000       0.0000000       0.0000000       0.0000000       0.0000000       0.0000000       0.0000000       0.0000000       0.0000000       0.0000000       0.0000000       0.0000000       0.0000000       0.0000000       0.0000000       0.0000000       0.0000000       0.0000000       0.0000000       0.0000000       0.0000000       0.0000000       0.0000000       0.0000000       0.0000000       0.0000000       0.0000000       0.0000000       0.0000000       0.0000000       0.0000000       0.0000000       0.0000000       0.0000000       0.0000000       0.0000000       0.0000000       0.0000000       0.0000000       0.0000000       0.0000000       0.0000000       0.0000000       0.0000000       0.0000000       0.0000000       0.0000000       0.0000000       0.0000000       0.0000000       0.0000000       0.0000000       0.0000000       0.0000000       0.0000000       0.0000000       0.0000000       0.0000000       0.0000000       0.0000000       0.0000000       0.0000000       0.0000000       0.0000000       0.0000000       0.0000000       0.0000000       0.0000000       0.0000000      5.42786717E-03  5.25493808E-02  0.97797614       8.1025877       17.557644       13.282946       6.5954351       10.608194       24.084810       45.677502       77.015083       107.33556       126.47921       134.95917       152.47658       198.45723       255.00040       281.21011       251.21507       196.79605       159.20044       134.49205       121.67595       126.62939       131.72867       113.37416       72.723572       33.918861       11.149114       1.9950359      0.11105268      4.19868506E-04  8.18414614E-03  2.66385023E-02  7.06611872E-02  0.25940987      0.12735125      1.47106461E-02  1.85373556E-02  4.56218608E-02  9.59835947E-02  6.82089627E-02  1.48747684E-02  0.39831197       12.832381       60.172764       151.34341       243.99014       254.19536       173.05223       82.350388       29.582680       5.7951355      6.00441061E-02  3.32106426E-02   0.0000000       0.0000000       0.0000000      2.30837008E-03  0.26833114       8.2704916       55.477192       163.11324       297.95493       396.06931       401.13858       301.13263       161.92221       55.177635       8.2368851      1.73471756E-02  0.26869178      0.29749972      7.52911270E-02  1.04048820E-02  1.25173507E-02  3.09812743E-03   0.0000000       2.0271845       22.931721       66.260872    
   0.0000000       0.0000000       0.0000000       0.0000000       0.0000000       0.0000000       0.0000000       0.0000000       0.0000000       0.0000000       0.0000000       0.0000000       0.0000000       0.0000000       0.0000000       0.0000000       0.0000000       0.0000000       0.0000000       0.0000000       0.0000000       0.0000000       0.0000000       0.0000000       0.0000000       0.0000000       0.0000000       0.0000000       0.0000000       0.0000000       0.0000000       0.0000000       0.0000000       0.0000000       0.0000000       0.0000000       0.0000000       0.0000000       0.0000000       0.0000000       0.0000000       0.0000000       0.0000000       0.0000000       0.0000000       0.0000000       0.0000000       0.0000000       0.0000000       0.0000000       0.0000000       0.0000000       0.0000000       0.0000000       0.0000000       0.0000000       0.0000000       0.0000000       0.0000000       0.0000000       0.0000000       0.0000000       0.0000000       0.0000000       0.0000000       0.0000000       0.0000000       0.0000000       0.0000000       0.0000000       0.0000000       0.0000000       0.0000000       0.0000000       0.0000000       0.0000000       0.0000000       0.0000000       0.0000000       0.0000000       0.0000000       0.0000000       0.0000000       0.0000000       0.0000000       0.0000000       0.0000000      6.11157296E-03  6.03602976E-02  0.14356841      2.86810566E-02  0.36781654       4.1763339       13.715213       22.656288       49.195370       106.35460       184.97488       269.84555       339.43179       364.62949       370.01437       396.26886       419.26028       405.94055       350.00882       279.89215       226.65498       188.22308       157.09273       130.87819       115.19424       108.76332       95.664383       67.171997       31.472553       7.1587501      0.51678693      4.35521564E-04  7.20329955E-03  7.62386397E-02   1.5838727       5.6626668       6.2819963       2.5024176      0.32101265      3.18937786E-02  6.80902898E-02  8.30442011E-02  3.03185824E-02  0.14907549       1.6333565       16.026089       71.138641       154.68094       205.98628       211.43808       186.52168       113.75709       30.896639       1.2879220       0.0000000       0.0000000       0.0000000       0.0000000      2.59913737E-03  0.23156565       3.2090957       23.879004       88.293045       206.76457       339.23315       395.59811       329.77548       202.65997       85.652496       17.643103      3.47084031E-02   1.1340331       1.9739799      0.89218712       0.0000000      1.50939974E-03  1.34179520E-03   0.0000000      1.32617513E-02   8.9121275       50.802940    
   0.0000000       0.0000000       0.0000000       0.0000000       0.0000000       0.0000000       0.0000000       0.0000000       0.0000000       0.0000000       0.0000000       0.0000000       0.0000000       0.0000000       0.0000000       0.0000000       0.0000000       0.0000000       0.0000000       0.0000000       0.0000000       0.0000000       0.0000000       0.0000000       0.0000000       0.0000000       0.0000000       0.0000000       0.0000000       0.0000000       0.0000000       0.0000000       0.0000000       0.0000000       0.0000000       0.0000000       0.0000000       0.0000000       0.0000000       0.0000000       0.0000000       0.0000000       0.0000000       0.0000000       0.0000000       0.0000000       0.0000000       0.0000000       0.0000000       0.0000000       0.0000000       0.0000000       0.0000000       0.0000000       0.0000000       0.0000000       0.0000000       0.0000000       0.0000000       0.0000000       0.0000000       0.0000000       0.0000000       0.0000000       0.0000000       0.0000000       0.0000000       0.0000000       0.0000000       0.0000000       0.0000000       0.0000000       0.0000000       0.0000000       0.0000000       0.0000000       0.0000000       0.0000000       0.0000000       0.0000000       0.0000000       0.0000000       0.0000000       0.0000000       0.0000000       0.0000000       0.0000000       0.0000000      1.37409929E-03  9.77496337E-03  4.95976675E-03  0.37283826       4.1150823       13.468746       30.132851       90.030251       203.51128       339.43439       478.14221       581.07379       610.07373       598.80719       593.92944       582.37665       536.49384       461.58136       381.28268       318.75482       275.75446       225.04169       158.90802       105.16313       85.281181       88.591507       79.532059       44.931618       12.278423       1.2041478       0.0000000       0.0000000      0.26423538       5.6434546       19.683416       24.940708       13.249429       2.4568329      3.76567692E-02  0.22309111      0.19215423      4.99838553E-02  0.16693641       1.5321245       10.907960       37.198902       86.956825       159.44965       237.38638       263.33102       180.29721       58.295765       11.999120       10.469631       6.6265283       6.0763402       7.8214874       5.4308558       1.7603750      0.40919140       2.0889344       17.690310       75.254387       187.90701       291.73898       291.78336       191.72375       78.839088       15.613945       2.0058663       7.0685554       11.540952       8.5422192       2.3818946      8.20493475E-02   0.0000000       0.0000000       0.0000000       1.3271384       34.022114    
   0.0000000       0.0000000       0.0000000       0.0000000       0.0000000       0.0000000       0.0000000       0.0000000       0.0000000       0.0000000       0.0000000       0.0000000       0.0000000       0.0000000       0.0000000       0.0000000       0.0000000       0.0000000       0.0000000       0.0000000       0.0000000       0.0000000       0.0000000       0.0000000       0.0000000       0.0000000       0.0000000       0.0000000       0.0000000       0.0000000       0.0000000       0.0000000       0.0000000       0.0000000       0.0000000       0.0000000       0.0000000       0.0000000       0.0000000       0.0000000       0.0000000       0.0000000       0.0000000       0.0000000       0.0000000       0.0000000       0.0000000       0.0000000       0.0000000       0.0000000       0.0000000       0.0000000       0.0000000       0.0000000       0.0000000       0.0000000       0.0000000       0.0000000       0.0000000       0.0000000       0.0000000       0.0000000       0.0000000       0.0000000       0.0000000       0.0000000       0.0000000       0.0000000       0.0000000       0.0000000       0.0000000       0.0000000       0.0000000       0.0000000       0.0000000       0.0000000       0.0000000       0.0000000       0.0000000       0.0000000       0.0000000       0.0000000       0.0000000       0.0000000       0.0000000       0.0000000       0.0000000       0.0000000       0.0000000       0.0000000      7.77200935E-03  0.19621973       1.3993224       3.6127725       11.034713       54.778690       165.89838       333.03140       527.06091       671.58130       709.47430       682.51343       654.78046       629.25507       576.41968       501.97672       424.67044       366.77109       330.95630       272.20801       182.76585       100.19747       57.997257       60.915508       66.544846       44.358253       14.625278       1.8335396       0.0000000       0.0000000      0.41140831       8.7883024       30.861967       42.729843       27.117834       6.5702515      0.31152955      0.24889080      0.27141502      0.10858090      3.17421071E-02  0.68698233       7.9890704       21.341719       42.820362       90.460793       156.88684       191.77039       146.86183       84.823563       83.246902       80.032341       49.581783       43.738907       47.337700       31.140863       9.5658360      0.81646228       0.0000000      8.91258642E-02   9.6833992       58.046597       147.58507       199.67308       152.86826       60.321987       12.011753       16.939150       31.688087       38.351864       31.025923       13.700706       3.4091733       1.8991485       1.3635575      0.37496388       0.0000000       19.563820    
   0.0000000       0.0000000       0.0000000       0.0000000       0.0000000       0.0000000       0.0000000       0.0000000       0.0000000       0.0000000       0.0000000       0.0000000       0.0000000       0.0000000       0.0000000       0.0000000       0.0000000       0.0000000       0.0000000       0.0000000       0.0000000       0.0000000       0.0000000       0.0000000       0.0000000       0.0000000       0.0000000       0.0000000       0.0000000       0.0000000       0.0000000       0.0000000       0.0000000       0.0000000       0.0000000       0.0000000       0.0000000       0.0000000       0.0000000       0.0000000       0.0000000       0.0000000       0.0000000       0.0000000       0.0000000       0.0000000       0.0000000       0.0000000       0.0000000       0.0000000       0.0000000       0.0000000       0.0000000       0.0000000       0.0000000       0.0000000       0.0000000       0.0000000       0.0000000       0.0000000       0.0000000       0.0000000       0.0000000       0.0000000       0.0000000       0.0000000       0.0000000       0.0000000       0.0000000       0.0000000       0.0000000       0.0000000       0.0000000       0.0000000       0.0000000       0.0000000       0.0000000       0.0000000       0.0000000       0.0000000       0.0000000       0.0000000       0.0000000       0.0000000       0.0000000       0.0000000       0.0000000       0.0000000       0.0000000       0.0000000      9.84295178E-03  7.05440268E-02  1.41706923E-02  1.02905417E-03  0.87681830       15.124698       88.844406       224.48862       395.66769       565.48920       668.47491       669.52563       616.96155       566.55072       518.68170       462.15530       396.70200       348.22598       323.90573       269.15698       173.67548       84.990402       40.714436       39.633087       47.872387       39.227974       16.691080       2.6603577      5.54630952E-03   0.0000000      0.34103191       7.2931795       25.833052       37.506229       26.066887       7.3614764      0.57638019      8.99351239E-02  0.15575932      0.13232301      4.38155904E-02  0.13520549       2.7400634       7.0522461       14.898600       32.805630       64.352287       110.58738       134.78200       156.54826       206.91830       195.01613       129.54320       103.29639       90.963196       54.083797       15.455026      0.99531114      1.07007778E-04  1.11218775E-02  0.17242275       7.5583668       40.348160       89.073692       99.642067       50.422626       17.660912       42.739185       68.900017       68.331268       53.408340       29.963501       11.946825       8.2523155       7.7020302       3.3102889      0.31869924       6.0453229    
   0.0000000       0.0000000       0.0000000       0.0000000       0.0000000       0.0000000       0.0000000       0.0000000       0.0000000       0.0000000       0.0000000       0.0000000       0.0000000       0.0000000       0.0000000       0.0000000       0.0000000       0.0000000       0.0000000       0.0000000       0.0000000       0.0000000       0.0000000       0.0000000       0.0000000       0.0000000       0.0000000       0.0000000       0.0000000       0.0000000       0.0000000       0.0000000       0.0000000       0.0000000       0.0000000       0.0000000       0.0000000       0.0000000       0.0000000       0.0000000       0.0000000       0.0000000       0.0000000       0.0000000       0.0000000       0.0000000       0.0000000       0.0000000       0.0000000       0.0000000       0.0000000       0.0000000       0.0000000       0.0000000       0.0000000       0.0000000       0.0000000       0.0000000       0.0000000       0.0000000       0.0000000       0.0000000       0.0000000       0.0000000       0.0000000       0.0000000       0.0000000       0.0000000       0.0000000       0.0000000       0.0000000       0.0000000       0.0000000       0.0000000       0.0000000       0.0000000       0.0000000       0.0000000       0.0000000       0.0000000       0.0000000       0.0000000       0.0000000       0.0000000       0.0000000       0.0000000       0.0000000       0.0000000       0.0000000       0.0000000      5.55227452E-04  3.97929177E-03  7.92826642E-04  7.36221466E-07  0.22549790       5.7563477       42.005009       100.44632       173.59207       300.04224       452.19958       513.64264       457.25110       378.76367       337.15747       315.32883       283.85095       258.29434       257.20609       223.19865       136.37547       59.299984       30.007362       29.721107       36.342880       37.651440       22.161827       5.3428845      0.33929542      1.49034467E-02  0.42726314       3.8244653       11.189022       15.583546       10.966134       3.3163722      0.44040525      5.98470718E-02  0.20278387      0.55975246      0.34378284      0.29104775       1.5366980       1.7633988       7.1175127       27.418554       71.750549       144.12589       194.12648       216.19006       246.82922       232.83380       171.73653       121.57344       81.054100       45.039268       26.175499       19.074562       8.1721869      0.94233304      0.10206793      8.54048729E-02   2.2663929       31.072126       75.986794       61.617977       28.414492       56.725269       86.779671       72.674835       52.837753       37.274426       18.912544       12.697254       14.594949       8.4732857       1.3864385       1.9374783    
   0.0000000       0.0000000       0.0000000       0.0000000       0.0000000       0.0000000       0.0000000       0.0000000       0.0000000       0.0000000       0.0000000       0.0000000       0.0000000       0.0000000       0.0000000       0.0000000       0.0000000       0.0000000       0.0000000       0.0000000       0.0000000       0.0000000       0.0000000       0.0000000       0.0000000       0.0000000       0.0000000       0.0000000       0.0000000       0.0000000       0.0000000       0.0000000       0.0000000       0.0000000       0.0000000       0.0000000       0.0000000       0.0000000       0.0000000       0.0000000       0.0000000       0.0000000       0.0000000       0.0000000       0.0000000       0.0000000       0.0000000       0.0000000       0.0000000       0.0000000       0.0000000       0.0000000       0.0000000       0.0000000       0.0000000       0.0000000       0.0000000       0.0000000       0.0000000       0.0000000       0.0000000       0.0000000       0.0000000       0.0000000       0.0000000       0.0000000       0.0000000       0.0000000       0.0000000       0.0000000       0.0000000       0.0000000       0.0000000       0.0000000       0.0000000       0.0000000       0.0000000       0.0000000       0.0000000       0.0000000       0.0000000       0.0000000       0.0000000       0.0000000       0.0000000       0.0000000       0.0000000       0.0000000       0.0000000       0.0000000      1.50971664E-06  1.08200766E-05  9.16028570E-04  9.58692934E-03  0.17937368       2.3894746       11.457542       20.911432       32.670017       75.604836       172.44324       241.41490       212.31621       145.63499       116.46425       121.41067       123.97914       126.37569       151.88495       156.45059       105.59016       49.464291       33.374981       43.143566       51.279755       52.236031       43.367222       25.684633       10.656616       1.9537321      0.60378242       1.9482418       2.2109215       2.1141667       1.3434415       1.2649128       1.4303151      0.45785430      0.25387385       1.4794890       1.1005834      0.99266219       3.9808266       7.8112736       18.931252       55.506348       122.76128       189.23431       207.51483       188.49541       175.59680       162.00201       133.79596       100.46054       70.711815       63.755077       84.001144       83.664474       41.035206       7.2298298      0.11819229      8.09401348E-02  0.21004650       30.839296       104.69209       107.73116       51.048168       55.088058       73.071823       53.641788       43.965279       42.844917       23.294077       8.5717173       11.339459       9.0236712       1.8272376       10.635765    
   0.0000000       0.0000000       0.0000000       0.0000000       0.0000000       0.0000000       0.0000000       0.0000000       0.0000000       0.0000000       0.0000000       0.0000000       0.0000000       0.0000000       0.0000000       0.0000000       0.0000000       0.0000000       0.0000000       0.0000000       0.0000000       0.0000000       0.0000000       0.0000000       0.0000000       0.0000000       0.0000000       0.0000000       0.0000000       0.0000000       0.0000000       0.0000000       0.0000000       0.0000000       0.0000000       0.0000000       0.0000000       0.0000000       0.0000000       0.0000000       0.0000000       0.0000000       0.0000000       0.0000000       0.0000000       0.0000000       0.0000000       0.0000000       0.0000000       0.0000000       0.0000000       0.0000000       0.0000000       0.0000000       0.0000000       0.0000000       0.0000000       0.0000000       0.0000000       0.0000000       0.0000000       0.0000000       0.0000000       0.0000000       0.0000000       0.0000000       0.0000000       0.0000000       0.0000000       0.0000000       0.0000000       0.0000000       0.0000000       0.0000000       0.0000000       0.0000000       0.0000000       0.0000000       0.0000000       0.0000000       0.0000000       0.0000000       0.0000000       0.0000000       0.0000000       0.0000000       0.0000000       0.0000000       0.0000000       0.0000000      1.50933888E-09  1.08173683E-08  1.20831153E-03  1.43670449E-02  4.27589864E-02  1.53822461E-02  3.22477445E-02  0.35485977       2.6829746       3.5519454       24.859766       49.099972       42.843143       18.723684       8.8913612       15.215633       22.687500       36.726444       75.589912       114.89501       116.88198       87.866791       78.110146       101.40009       111.73089       98.979874       90.900642       81.249733       57.717148       27.052143       7.4836159       2.7036419       1.3834518      0.84199643      0.66897494       4.3812995       5.5989165       1.8422401      0.30833989       1.2056174       1.7321773       3.7553027       14.851767       28.056856       46.651085       82.169998       137.04158       180.16057       179.67992       150.30396       113.15116       79.673370       72.533119       96.115677       119.39443       140.49838       171.46078       163.73759       93.594582       25.812677       2.0956514      2.28901510E-04  0.19936220       29.846748       112.13024       137.33069       80.362755       49.613747       44.687885       36.078365       50.352005       65.080475       41.486027       10.688477       4.2440934       3.9262991      0.74263453       18.644001    
   0.0000000       0.0000000       0.0000000       0.0000000       0.0000000       0.0000000       0.0000000       0.0000000       0.0000000       0.0000000       0.0000000       0.0000000       0.0000000       0.0000000       0.0000000       0.0000000       0.0000000       0.0000000       0.0000000       0.0000000       0.0000000       0.0000000       0.0000000       0.0000000       0.0000000       0.0000000       0.0000000       0.0000000       0.0000000       0.0000000       0.0000000       0.0000000       0.0000000       0.0000000       0.0000000       0.0000000       0.0000000       0.0000000       0.0000000       0.0000000       0.0000000       0.0000000       0.0000000       0.0000000       0.0000000       0.0000000       0.0000000       0.0000000       0.0000000       0.0000000       0.0000000       0.0000000       0.0000000       0.0000000       0.0000000       0.0000000       0.0000000       0.0000000       0.0000000       0.0000000       0.0000000       0.0000000       0.0000000       0.0000000       0.0000000       0.0000000       0.0000000       0.0000000       0.0000000       0.0000000       0.0000000       0.0000000       0.0000000       0.0000000       0.0000000       0.0000000       0.0000000       0.0000000       0.0000000       0.0000000       0.0000000       0.0000000       0.0000000       0.0000000       0.0000000       0.0000000       0.0000000       0.0000000       0.0000000       0.0000000       0.0000000       0.0000000      4.37545204E-05  2.68581323E-03  1.83174647E-02  4.90941945E-03  8.12999532E-03  2.97035673E-03  7.74100795E-02   1.0314629       5.3604198       15.419329       29.621304       33.763226       22.696375       8.9885111       1.9220855       8.9570694       46.083458       106.08282       155.62318       164.30969       167.29276       196.97070       204.36218       172.98735       158.38959       164.38182       151.12909       104.17451       52.893208       29.496687       19.938196       11.005028       13.287301       27.995750       31.369619       23.892284       17.138426       11.082104       6.7311711       7.3665285       22.284103       39.764805       65.234985       96.274345       126.80392       152.38744       155.51808       138.87245       102.46379       53.599125       44.555122       95.936554       157.40880       196.82417       215.49286       198.07790       133.20186       53.293610       8.9743319      3.44440043E-02   2.3419147       19.077404       75.577682       130.39194       117.73343       62.708656       28.004871       28.775984       63.348114       98.777596       83.226288       36.710812       7.8178692      0.50918019      2.85258377E-03   12.866525    
   0.0000000       0.0000000       0.0000000       0.0000000       0.0000000       0.0000000       0.0000000       0.0000000       0.0000000       0.0000000       0.0000000       0.0000000       0.0000000       0.0000000       0.0000000       0.0000000       0.0000000       0.0000000       0.0000000       0.0000000       0.0000000       0.0000000       0.0000000       0.0000000       0.0000000       0.0000000       0.0000000       0.0000000       0.0000000       0.0000000       0.0000000       0.0000000       0.0000000       0.0000000       0.0000000       0.0000000       0.0000000       0.0000000       0.0000000       0.0000000       0.0000000       0.0000000       0.0000000       0.0000000       0.0000000       0.0000000       0.0000000       0.0000000       0.0000000       0.0000000       0.0000000       0.0000000       0.0000000       0.0000000       0.0000000       0.0000000       0.0000000       0.0000000       0.0000000       0.0000000       0.0000000       0.0000000       0.0000000       0.0000000       0.0000000       0.0000000       0.0000000       0.0000000       0.0000000       0.0000000       0.0000000       0.0000000       0.0000000       0.0000000       0.0000000       0.0000000       0.0000000       0.0000000       0.0000000       0.0000000       0.0000000       0.0000000       0.0000000       0.0000000       0.0000000       0.0000000       0.0000000       0.0000000       0.0000000       0.0000000       0.0000000       0.0000000      1.91034232E-07  1.28543643E-05  8.87178103E-05  1.36370549E-03  1.09287314E-02  2.45314930E-03  0.25167996       4.8091307       30.902603       81.615891       140.89137       173.36807       149.79431       100.34145       77.476166       65.925217       72.683121       136.63747       215.92207       258.07733       278.38367       296.37659       289.68881       254.82428       240.89635       254.16183       249.45949       208.46094       152.13419       113.03278       88.860916       68.353416       74.671051       97.308136       97.649353       90.767166       87.312988       78.709442       60.848709       38.578758       29.558428       33.836330       60.076706       95.254196       116.35216       131.84401       139.46088       134.39423       114.48917       78.030106       55.558327       73.628891       125.03809       182.69037       206.82220       191.41261       146.25473       75.876923       17.756844       1.3338205       18.660286       45.516148       87.733681       164.58910       194.48473       116.25262       32.855301       24.889885       69.910934       116.60122       113.23731       61.839649       15.077275      9.62640792E-02   0.0000000       3.0282602    
   0.0000000       0.0000000       0.0000000       0.0000000       0.0000000       0.0000000       0.0000000       0.0000000       0.0000000       0.0000000       0.0000000       0.0000000       0.0000000       0.0000000       0.0000000       0.0000000       0.0000000       0.0000000       0.0000000       0.0000000       0.0000000       0.0000000       0.0000000       0.0000000       0.0000000       0.0000000       0.0000000       0.0000000       0.0000000       0.0000000       0.0000000       0.0000000       0.0000000       0.0000000       0.0000000       0.0000000       0.0000000       0.0000000       0.0000000       0.0000000       0.0000000       0.0000000       0.0000000       0.0000000       0.0000000       0.0000000       0.0000000       0.0000000       0.0000000       0.0000000       0.0000000       0.0000000       0.0000000       0.0000000       0.0000000       0.0000000       0.0000000       0.0000000       0.0000000       0.0000000       0.0000000       0.0000000       0.0000000       0.0000000       0.0000000       0.0000000       0.0000000       0.0000000       0.0000000       0.0000000       0.0000000       0.0000000       0.0000000       0.0000000       0.0000000       0.0000000       0.0000000       0.0000000       0.0000000       0.0000000       0.0000000       0.0000000       0.0000000       0.0000000       0.0000000       0.0000000       0.0000000       0.0000000       0.0000000       0.0000000       0.0000000       0.0000000       0.0000000       0.0000000       0.0000000      7.89236037E-06  6.41401639E-05  1.43974075E-05  0.22165348       6.0602322       49.877167       145.75978       274.10941       388.78784       393.34357       326.66251       336.02957       331.14151       270.98138       289.35645       356.17941       404.78278       422.87836       398.43094       363.77594       339.24725       325.66727       321.95456       306.44040       279.38776       251.75858       227.42537       206.58199       188.29843       191.05449       199.21944       182.51274       176.44972       192.19293       197.07480       175.04599       134.25560       102.29119       79.602081       76.790222       98.380951       124.26608       155.19353       178.26723       175.88712       160.62273       137.11339       102.80476       69.090096       66.151299       120.60229       178.61804       185.71863       155.96968       96.449043       28.053400       2.9321551       45.036957       116.60609       178.31886       246.84677       271.20599       172.62318       47.533825       23.934143       70.570534       102.41211       90.337227       47.933617       11.265079      8.13121442E-03  1.71004161E-02  3.41829807E-02
   0.0000000       0.0000000       0.0000000       0.0000000       0.0000000       0.0000000       0.0000000       0.0000000       0.0000000       0.0000000       0.0000000       0.0000000       0.0000000       0.0000000       0.0000000       0.0000000       0.0000000       0.0000000       0.0000000       0.0000000       0.0000000       0.0000000       0.0000000       0.0000000       0.0000000       0.0000000       0.0000000       0.0000000       0.0000000       0.0000000       0.0000000       0.0000000       0.0000000       0.0000000       0.0000000       0.0000000       0.0000000       0.0000000       0.0000000       0.0000000       0.0000000       0.0000000       0.0000000       0.0000000       0.0000000       0.0000000       0.0000000       0.0000000       0.0000000       0.0000000       0.0000000       0.0000000       0.0000000       0.0000000       0.0000000       0.0000000       0.0000000       0.0000000       0.0000000       0.0000000       0.0000000       0.0000000       0.0000000       0.0000000       0.0000000       0.0000000       0.0000000       0.0000000       0.0000000       0.0000000       0.0000000       0.0000000       0.0000000       0.0000000       0.0000000       0.0000000       0.0000000       0.0000000       0.0000000       0.0000000       0.0000000       0.0000000       0.0000000       0.0000000       0.0000000       0.0000000       0.0000000       0.0000000       0.0000000       0.0000000       0.0000000       0.0000000       0.0000000       0.0000000       0.0000000       0.0000000      2.27062817E-04  1.89141545E-03  1.94875093E-03   1.9317102       27.200064       123.08560       327.42447       573.38831       642.42987       591.95819       689.70081       768.73444       705.44904       667.13623       676.60529       681.75409       630.14746       531.74799       463.10144       430.62149       395.87643       360.58282       336.91138       318.85709       309.49591       316.48096       322.70328       317.14236       324.40271       337.36221       318.41214       286.92200       278.00903       284.12155       280.17706       259.06259       229.89607       181.17744       137.63792       136.36894       167.87749       213.47287       241.66666       235.42606       221.63832       204.99332       165.07236       106.72432       55.433632       69.732765       140.52989       184.49338       184.26495       136.09380       49.546783       5.1000175       58.588272       175.54234       265.19559       299.03241       280.15775       179.04297       55.844486       20.397224       54.723953       68.976456       44.612415       16.470461       2.9290421      6.96383836E-03  3.07722911E-02  2.36283001E-02
   0.0000000       0.0000000       0.0000000       0.0000000       0.0000000       0.0000000       0.0000000       0.0000000       0.0000000       0.0000000       0.0000000       0.0000000       0.0000000       0.0000000       0.0000000       0.0000000       0.0000000       0.0000000       0.0000000       0.0000000       0.0000000       0.0000000       0.0000000       0.0000000       0.0000000       0.0000000       0.0000000       0.0000000       0.0000000       0.0000000       0.0000000       0.0000000       0.0000000       0.0000000       0.0000000       0.0000000       0.0000000       0.0000000       0.0000000       0.0000000       0.0000000       0.0000000       0.0000000       0.0000000       0.0000000       0.0000000       0.0000000       0.0000000       0.0000000       0.0000000       0.0000000       0.0000000       0.0000000       0.0000000       0.0000000       0.0000000       0.0000000       0.0000000       0.0000000       0.0000000       0.0000000       0.0000000       0.0000000       0.0000000       0.0000000       0.0000000       0.0000000       0.0000000       0.0000000       0.0000000       0.0000000       0.0000000       0.0000000       0.0000000       0.0000000       0.0000000       0.0000000       0.0000000       0.0000000       0.0000000       0.0000000       0.0000000       0.0000000       0.0000000       0.0000000       0.0000000       0.0000000       0.0000000       0.0000000       0.0000000       0.0000000       0.0000000       0.0000000       0.0000000       0.0000000       0.0000000      3.25053901E-04  2.70767324E-03  6.21734478E-04  0.12248750       8.2953005       95.958954       350.62866       691.20099       830.49054       791.12860       898.90704       1079.1193       1168.1259       1182.3544       1130.1044       1008.0880       825.24963       676.77899       582.24811       500.73581       426.91071       375.82843       376.27692       385.66534       373.33786       383.52103       410.47922       428.71890       479.05835       565.38470       593.89148       506.29550       390.88760       360.70621       384.16757       380.83646       339.53894       275.98627       239.87900       255.94806       282.49585       287.70471       265.20789       241.09451       249.22224       262.57455       236.38094       198.49492       161.97565       113.31013       110.70068       174.42021       230.89685       197.41904       82.294769       11.159046       66.917389       204.53955       296.43399       296.82068       248.94847       158.75143       54.754330       10.154067       22.445076       31.739395       17.046093       2.7732477      3.87518145E-02  2.51439437E-02  2.04011966E-02  1.07089337E-02
   0.0000000       0.0000000       0.0000000       0.0000000       0.0000000       0.0000000       0.0000000       0.0000000       0.0000000       0.0000000       0.0000000       0.0000000       0.0000000       0.0000000       0.0000000       0.0000000       0.0000000       0.0000000       0.0000000       0.0000000       0.0000000       0.0000000       0.0000000       0.0000000       0.0000000       0.0000000       0.0000000       0.0000000       0.0000000       0.0000000       0.0000000       0.0000000       0.0000000       0.0000000       0.0000000       0.0000000       0.0000000       0.0000000       0.0000000       0.0000000       0.0000000       0.0000000       0.0000000       0.0000000       0.0000000       0.0000000       0.0000000       0.0000000       0.0000000       0.0000000       0.0000000       0.0000000       0.0000000       0.0000000       0.0000000       0.0000000       0.0000000       0.0000000       0.0000000       0.0000000       0.0000000       0.0000000       0.0000000       0.0000000       0.0000000       0.0000000       0.0000000       0.0000000       0.0000000       0.0000000       0.0000000       0.0000000       0.0000000       0.0000000       0.0000000       0.0000000       0.0000000       0.0000000       0.0000000       0.0000000       0.0000000       0.0000000       0.0000000       0.0000000       0.0000000       0.0000000       0.0000000       0.0000000       0.0000000       0.0000000       0.0000000       0.0000000       0.0000000       0.0000000       0.0000000       0.0000000      2.84778366E-06  2.37218173E-05  5.44699014E-06  0.20101704       9.6177959       100.81934       340.06793       670.83673       883.63507       858.82892       855.22638       1033.5889       1258.6770       1387.4016       1313.3577       1057.4741       810.31818       694.80432       600.37909       468.60046       364.06534       342.31683       418.49146       500.61221       502.28427       470.53629       476.95477       517.23181       607.84125       751.99878       830.77417       730.81580       545.48041       473.95108       500.83798       493.59412       442.49149       392.97940       394.28018       433.39133       436.78625       371.21634       262.83438       200.85570       248.17636       333.50641       349.61359       337.43359       326.45129       218.36948       112.36852       170.96700       275.35022       248.66908       106.99797       15.914430       75.064781       206.45831       265.58511       238.54950       191.80344       123.22094       42.075436       3.6428764       2.6896420       6.6575332       4.5162854      0.61439800      2.39203926E-02  2.23843474E-02  1.54029392E-02  0.10103749    
   0.0000000       0.0000000       0.0000000       0.0000000       0.0000000       0.0000000       0.0000000       0.0000000       0.0000000       0.0000000       0.0000000       0.0000000       0.0000000       0.0000000       0.0000000       0.0000000       0.0000000       0.0000000       0.0000000       0.0000000       0.0000000       0.0000000       0.0000000       0.0000000       0.0000000       0.0000000       0.0000000       0.0000000       0.0000000       0.0000000       0.0000000       0.0000000       0.0000000       0.0000000       0.0000000       0.0000000       0.0000000       0.0000000       0.0000000       0.0000000       0.0000000       0.0000000       0.0000000       0.0000000       0.0000000       0.0000000       0.0000000       0.0000000       0.0000000       0.0000000       0.0000000       0.0000000       0.0000000       0.0000000       0.0000000       0.0000000       0.0000000       0.0000000       0.0000000       0.0000000       0.0000000       0.0000000       0.0000000       0.0000000       0.0000000       0.0000000       0.0000000       0.0000000       0.0000000       0.0000000       0.0000000       0.0000000       0.0000000       0.0000000       0.0000000       0.0000000       0.0000000       0.0000000       0.0000000       0.0000000       0.0000000       0.0000000       0.0000000       0.0000000       0.0000000       0.0000000       0.0000000       0.0000000       0.0000000       0.0000000       0.0000000       0.0000000       0.0000000       0.0000000       0.0000000       0.0000000       0.0000000       0.0000000       0.0000000      0.17240342       6.2553911       62.595131       230.61015       516.98010       774.46478       762.30389       657.00983       732.85291       912.35376       1061.8948       996.88281       727.54321       524.21661       461.51660       400.62421       292.95694       214.53625       268.25119       452.72778       628.30292       660.39252       574.17096       528.08588       551.84436       604.01770       691.75446       762.30603       738.74200       636.09015       568.34772       559.52643       542.71521       518.90350       507.25604       512.69220       510.24762       466.66669       369.11093       229.36440       161.88837       265.42401       430.47876       487.04272       452.51532       392.66083       248.95184       119.03628       177.83566       292.48944       258.61038       107.72729       15.439014       60.982899       148.82513       163.19174       123.96413       91.292061       55.508060       17.471399       1.6818432      0.27219522       1.4244461       2.9891028       3.0536623       1.7366855      0.36319843      1.48490595E-04  0.12869513    
   0.0000000       0.0000000       0.0000000       0.0000000       0.0000000       0.0000000       0.0000000       0.0000000       0.0000000       0.0000000       0.0000000       0.0000000       0.0000000       0.0000000       0.0000000       0.0000000       0.0000000       0.0000000       0.0000000       0.0000000       0.0000000       0.0000000       0.0000000       0.0000000       0.0000000       0.0000000       0.0000000       0.0000000       0.0000000       0.0000000       0.0000000       0.0000000       0.0000000       0.0000000       0.0000000       0.0000000       0.0000000       0.0000000       0.0000000       0.0000000       0.0000000       0.0000000       0.0000000       0.0000000       0.0000000       0.0000000       0.0000000       0.0000000       0.0000000       0.0000000       0.0000000       0.0000000       0.0000000       0.0000000       0.0000000       0.0000000       0.0000000       0.0000000       0.0000000       0.0000000       0.0000000       0.0000000       0.0000000       0.0000000       0.0000000       0.0000000       0.0000000       0.0000000       0.0000000       0.0000000       0.0000000       0.0000000       0.0000000       0.0000000       0.0000000       0.0000000       0.0000000       0.0000000       0.0000000       0.0000000       0.0000000       0.0000000       0.0000000       0.0000000       0.0000000       0.0000000       0.0000000       0.0000000       0.0000000       0.0000000       0.0000000       0.0000000       0.0000000       0.0000000       0.0000000       0.0000000       0.0000000      4.99645190E-04  9.84134525E-03  5.16934060E-02  0.60769159       15.404701       130.94882       407.24731       623.52496       558.51373       411.65384       394.71304       475.62296       570.08972       509.22171       322.21802       191.73610       147.04561       126.13521       89.587494       76.888214       191.35971       440.31625       680.39111       754.67212       669.46906       599.66711       592.44086       576.30933       579.76013       622.25287       676.13947       681.06799       611.25568       540.19043       520.47021       534.43475       557.12994       565.08612       509.34418       405.66324       293.17142       165.83484       128.33160       279.69586       482.72968       573.98438       536.05017       416.78833       244.45244       124.51518       182.40337       274.39807       217.07542       79.559174       9.4761381       24.153313       52.412003       47.473824       26.932432       14.895182       15.516213       21.917175       18.170389       7.3527312       3.4255805       12.678649       25.777796       23.195574       8.1064463      0.17631005      0.38940826    
   0.0000000       0.0000000       0.0000000       0.0000000       0.0000000       0.0000000       0.0000000       0.0000000       0.0000000       0.0000000       0.0000000       0.0000000       0.0000000       0.0000000       0.0000000       0.0000000       0.0000000       0.0000000       0.0000000       0.0000000       0.0000000       0.0000000       0.0000000       0.0000000       0.0000000       0.0000000       0.0000000       0.0000000       0.0000000       0.0000000       0.0000000       0.0000000       0.0000000       0.0000000       0.0000000       0.0000000       0.0000000       0.0000000       0.0000000       0.0000000       0.0000000       0.0000000       0.0000000       0.0000000       0.0000000       0.0000000       0.0000000       0.0000000       0.0000000       0.0000000       0.0000000       0.0000000       0.0000000       0.0000000       0.0000000       0.0000000       0.0000000       0.0000000       0.0000000       0.0000000       0.0000000       0.0000000       0.0000000       0.0000000       0.0000000       0.0000000       0.0000000       0.0000000       0.0000000       0.0000000       0.0000000       0.0000000       0.0000000       0.0000000       0.0000000       0.0000000       0.0000000       0.0000000       0.0000000       0.0000000       0.0000000       0.0000000       0.0000000       0.0000000       0.0000000       0.0000000       0.0000000       0.0000000       0.0000000       0.0000000       0.0000000       0.0000000       0.0000000       0.0000000       0.0000000       0.0000000       0.0000000      7.79036433E-04  1.58730838E-02  8.23967680E-02  2.55459230E-02   7.1144323       96.533585       340.91095       466.82617       337.04797       185.27484       137.46779       166.53983       205.95868       162.85114       80.362808       27.378403       5.8811231       3.4790592       2.2988257       17.012859       122.82115       333.32285       561.08337       691.20483       674.41791       640.23071       674.24268       664.78455       639.65729       674.80060       733.97925       727.23132       609.83673       490.09827       483.47812       552.89087       639.04224       714.91046       659.87714       470.99005       265.83716       101.40218       61.778549       200.73344       407.59314       566.12604       608.87909       495.71564       277.32599       129.52570       163.70238       208.05643       129.02350       34.203941       2.3610256       1.2507679       5.7255507       9.8166275       8.4816017       6.0681334       32.789204       72.294907       70.798744       38.193111       13.853312       26.401527       67.419434       72.639618       32.559250       8.4825058       9.7682695    
   0.0000000       0.0000000       0.0000000       0.0000000       0.0000000       0.0000000       0.0000000       0.0000000       0.0000000       0.0000000       0.0000000       0.0000000       0.0000000       0.0000000       0.0000000       0.0000000       0.0000000       0.0000000       0.0000000       0.0000000       0.0000000       0.0000000       0.0000000       0.0000000       0.0000000       0.0000000       0.0000000       0.0000000       0.0000000       0.0000000       0.0000000       0.0000000       0.0000000       0.0000000       0.0000000       0.0000000       0.0000000       0.0000000       0.0000000       0.0000000       0.0000000       0.0000000       0.0000000       0.0000000       0.0000000       0.0000000       0.0000000       0.0000000       0.0000000       0.0000000       0.0000000       0.0000000       0.0000000       0.0000000       0.0000000       0.0000000       0.0000000       0.0000000       0.0000000       0.0000000       0.0000000       0.0000000       0.0000000       0.0000000       0.0000000       0.0000000       0.0000000       0.0000000       0.0000000       0.0000000       0.0000000       0.0000000       0.0000000       0.0000000       0.0000000       0.0000000       0.0000000       0.0000000       0.0000000       0.0000000       0.0000000       0.0000000       0.0000000       0.0000000       0.0000000       0.0000000       0.0000000       0.0000000       0.0000000       0.0000000       0.0000000       0.0000000       0.0000000       0.0000000       0.0000000       0.0000000       0.0000000      9.66431253E-06  1.03267410E-03  1.70406755E-02  8.02795291E-02   3.3250315       46.555775       173.19063       223.05565       133.80902       47.147228       18.924852       21.331863       26.489429       15.321877       3.7631698      0.46449679      5.28954752E-02  2.58114487E-02  0.50374424       11.288277       71.697723       175.78851       314.46320       453.61310       500.69852       534.25757       637.77594       665.26971       639.76404       678.83923       726.68188       674.37299       520.94458       385.23343       410.42343       562.41510       722.64960       884.59259       877.75623       605.03387       264.85397       81.107719       73.667984       152.22261       297.32202       470.80969       566.80951       476.33878       238.01494       81.189766       87.987801       94.153351       40.479362       10.054995       14.300703       23.605120       50.614689       76.155632       68.611946       40.950207       50.519028       104.02909       122.80791       80.675156       26.932053       25.915443       84.190422       108.03405       68.469963       42.494904       40.835663    
   0.0000000       0.0000000       0.0000000       0.0000000       0.0000000       0.0000000       0.0000000       0.0000000       0.0000000       0.0000000       0.0000000       0.0000000       0.0000000       0.0000000       0.0000000       0.0000000       0.0000000       0.0000000       0.0000000       0.0000000       0.0000000       0.0000000       0.0000000       0.0000000       0.0000000       0.0000000       0.0000000       0.0000000       0.0000000       0.0000000       0.0000000       0.0000000       0.0000000       0.0000000       0.0000000       0.0000000       0.0000000       0.0000000       0.0000000       0.0000000       0.0000000       0.0000000       0.0000000       0.0000000       0.0000000       0.0000000       0.0000000       0.0000000       0.0000000       0.0000000       0.0000000       0.0000000       0.0000000       0.0000000       0.0000000       0.0000000       0.0000000       0.0000000       0.0000000       0.0000000       0.0000000       0.0000000       0.0000000       0.0000000       0.0000000       0.0000000       0.0000000       0.0000000       0.0000000       0.0000000       0.0000000       0.0000000       0.0000000       0.0000000       0.0000000       0.0000000       0.0000000       0.0000000       0.0000000       0.0000000       0.0000000       0.0000000       0.0000000       0.0000000       0.0000000       0.0000000       0.0000000       0.0000000       0.0000000       0.0000000       0.0000000       0.0000000       0.0000000       0.0000000       0.0000000       0.0000000       0.0000000       0.0000000      1.11870522E-05  1.47065343E-02  0.17090449      0.66185838       4.7560968       24.101494       32.006645       16.423508       2.9021020      0.23108427      0.25859466      0.32122022      0.17882389      3.75397690E-02  2.09145620E-03  1.25287054E-03  4.02394246E-04  0.55830777       9.9416838       30.694998       53.251312       110.62632       189.20578       243.52855       327.23959       417.24094       415.05008       383.63632       432.01013       529.11389       516.58655       357.22632       208.20792       242.25433       411.55945       574.72931       747.12531       791.79095       577.06915       308.97217       285.88797       410.61707       425.97394       386.78360       371.08438       358.66028       273.99799       111.95142       17.362106       13.376239       11.135804       16.212715       62.967026       109.05032       119.93941       157.20909       203.66100       186.59087       112.38797       56.494106       77.800247       112.93275       84.329613       26.629963       15.587052       69.529816       113.98693       104.81055       89.113029       75.943039    
   0.0000000       0.0000000       0.0000000       0.0000000       0.0000000       0.0000000       0.0000000       0.0000000       0.0000000       0.0000000       0.0000000       0.0000000       0.0000000       0.0000000       0.0000000       0.0000000       0.0000000       0.0000000       0.0000000       0.0000000       0.0000000       0.0000000       0.0000000       0.0000000       0.0000000       0.0000000       0.0000000       0.0000000       0.0000000       0.0000000       0.0000000       0.0000000       0.0000000       0.0000000       0.0000000       0.0000000       0.0000000       0.0000000       0.0000000       0.0000000       0.0000000       0.0000000       0.0000000       0.0000000       0.0000000       0.0000000       0.0000000       0.0000000       0.0000000       0.0000000       0.0000000       0.0000000       0.0000000       0.0000000       0.0000000       0.0000000       0.0000000       0.0000000       0.0000000       0.0000000       0.0000000       0.0000000       0.0000000       0.0000000       0.0000000       0.0000000       0.0000000       0.0000000       0.0000000       0.0000000       0.0000000       0.0000000       0.0000000       0.0000000       0.0000000       0.0000000       0.0000000       0.0000000       0.0000000       0.0000000       0.0000000       0.0000000       0.0000000       0.0000000       0.0000000       0.0000000       0.0000000       0.0000000       0.0000000       0.0000000       0.0000000       0.0000000       0.0000000       0.0000000       0.0000000       0.0000000       0.0000000       0.0000000       0.0000000      9.65146872E-04  7.40585178E-02  0.61077571      0.20963818      0.31148976      0.41495419      0.20945629      3.28296982E-02  1.45918253E-04  4.11563306E-05   0.0000000       0.0000000       0.0000000      1.54587324E-04  3.05276806E-03  1.68398898E-02  0.22432536       2.8793900       3.8162680       4.3735337       25.203259       44.084175       68.954010       136.05077       167.50026       129.44473       98.688011       133.45064       244.99042       283.92734       174.45877       61.394440       65.297432       144.90491       240.44334       339.38919       381.50339       368.03726       430.00647       664.01459       860.29218       804.07178       584.77594       325.51950       146.23659       69.681015       21.069057      0.71738958       5.6158824       35.500668       111.07618       229.88570       294.56931       262.40829       253.44727       284.48083       264.14468       176.17967       75.433731       37.805389       53.719692       47.396896       16.289209       8.6900749       54.812775       116.56202       130.11221       108.39583       84.428055    
   0.0000000       0.0000000       0.0000000       0.0000000       0.0000000       0.0000000       0.0000000       0.0000000       0.0000000       0.0000000       0.0000000       0.0000000       0.0000000       0.0000000       0.0000000       0.0000000       0.0000000       0.0000000       0.0000000       0.0000000       0.0000000       0.0000000       0.0000000       0.0000000       0.0000000       0.0000000       0.0000000       0.0000000       0.0000000       0.0000000       0.0000000       0.0000000       0.0000000       0.0000000       0.0000000       0.0000000       0.0000000       0.0000000       0.0000000       0.0000000       0.0000000       0.0000000       0.0000000       0.0000000       0.0000000       0.0000000       0.0000000       0.0000000       0.0000000       0.0000000       0.0000000       0.0000000       0.0000000       0.0000000       0.0000000       0.0000000       0.0000000       0.0000000       0.0000000       0.0000000       0.0000000       0.0000000       0.0000000       0.0000000       0.0000000       0.0000000       0.0000000       0.0000000       0.0000000       0.0000000       0.0000000       0.0000000       0.0000000       0.0000000       0.0000000       0.0000000       0.0000000       0.0000000       0.0000000       0.0000000       0.0000000       0.0000000       0.0000000       0.0000000       0.0000000       0.0000000       0.0000000       0.0000000       0.0000000       0.0000000       0.0000000       0.0000000       0.0000000       0.0000000       0.0000000       0.0000000       0.0000000       0.0000000       0.0000000      1.14698059E-05  1.08329649E-03  9.13347118E-03  2.56750081E-03  7.53178319E-05   0.0000000       0.0000000      2.22300787E-05  2.48302473E-04  7.00338496E-05   0.0000000       0.0000000       0.0000000      2.31765944E-06  1.67737936E-03  2.75259707E-02  7.67359734E-02  7.05136508E-02  9.38449204E-02  0.25234810       3.4546604       3.2057679       6.9432373       25.126244       28.045654       9.4606791       1.8341845       7.0146356       44.052197       64.862610       36.649643       7.4741449       1.0375166       5.7823248       28.359407       49.815189       61.739979       149.57721       388.59705       682.67670       810.23132       692.79486       459.09183       211.24646       45.629547       1.0708623       5.6367202       5.7273488       26.732986       136.15092       303.61069       423.92374       426.62048       347.80679       290.36475       278.15720       261.30496       200.36914       100.39530       24.682907       10.850744       15.456743       6.8672252       3.3786740       40.932194       106.59473       129.58246       101.43607       70.937622    
   0.0000000       0.0000000       0.0000000       0.0000000       0.0000000       0.0000000       0.0000000       0.0000000       0.0000000       0.0000000       0.0000000       0.0000000       0.0000000       0.0000000       0.0000000       0.0000000       0.0000000       0.0000000       0.0000000       0.0000000       0.0000000       0.0000000       0.0000000       0.0000000       0.0000000       0.0000000       0.0000000       0.0000000       0.0000000       0.0000000       0.0000000       0.0000000       0.0000000       0.0000000       0.0000000       0.0000000       0.0000000       0.0000000       0.0000000       0.0000000       0.0000000       0.0000000       0.0000000       0.0000000       0.0000000       0.0000000       0.0000000       0.0000000       0.0000000       0.0000000       0.0000000       0.0000000       0.0000000       0.0000000       0.0000000       0.0000000       0.0000000       0.0000000       0.0000000       0.0000000       0.0000000       0.0000000       0.0000000       0.0000000       0.0000000       0.0000000       0.0000000       0.0000000       0.0000000      1.37949910E-03  6.01239270E-03  7.22396944E-04   0.0000000      9.36701952E-04  4.48312005E-03  6.09605340E-04  8.76015329E-05  1.22351421E-05   0.0000000      8.57718260E-05  4.68434329E-04  7.28457817E-05  8.40757275E-06  4.91039718E-05  8.21973117E-06   0.0000000      3.07729374E-06  1.98055877E-05  3.62916148E-06   0.0000000       0.0000000       0.0000000       0.0000000       0.0000000       0.0000000       0.0000000       0.0000000       0.0000000       0.0000000       0.0000000       0.0000000      4.89284673E-07  4.66381789E-06  1.19218350E-06   0.0000000       0.0000000      3.51873240E-07  3.93030541E-06  1.10854478E-06   0.0000000       0.0000000       0.0000000       0.0000000      2.60558390E-05  4.35541355E-04  1.68402761E-03  1.26527390E-02  7.43207186E-02  3.22495215E-02  5.10218479E-02  4.11824808E-02  9.50508341E-02  0.36952710      0.40886167      0.12296122      4.41970378E-02  9.65083018E-02  0.64616275      0.96907365      0.54512340      0.12475102      1.19542014E-02  0.10134112      0.41690886      0.71614683       1.6699165       33.121960       141.13892       279.24258       326.35474       236.77548       122.06334       48.001442       10.085160       17.192741       86.754150       130.66000       143.07329       269.33728       466.37427       527.24799       436.10312       326.17038       244.08002       194.65388       189.41866       178.63158       118.62021       46.016891       13.273415       13.501645       15.211342       8.8832664       22.437023       67.220520       91.819931       75.193909       47.997784    
   0.0000000       0.0000000       0.0000000       0.0000000       0.0000000       0.0000000       0.0000000       0.0000000       0.0000000       0.0000000       0.0000000       0.0000000       0.0000000       0.0000000       0.0000000       0.0000000       0.0000000       0.0000000       0.0000000       0.0000000       0.0000000       0.0000000       0.0000000       0.0000000       0.0000000       0.0000000       0.0000000       0.0000000       0.0000000       0.0000000       0.0000000       0.0000000       0.0000000       0.0000000       0.0000000       0.0000000       0.0000000       0.0000000       0.0000000       0.0000000       0.0000000       0.0000000       0.0000000       0.0000000       0.0000000       0.0000000       0.0000000       0.0000000       0.0000000       0.0000000       0.0000000       0.0000000       0.0000000       0.0000000       0.0000000       0.0000000       0.0000000       0.0000000       0.0000000       0.0000000       0.0000000       0.0000000       0.0000000       0.0000000       0.0000000       0.0000000      4.12964873E-05  5.28584188E-03  2.13589892E-02  4.88553802E-03  1.06781637E-02  1.28299603E-03   0.0000000      1.66360731E-03  7.96213839E-03  1.08267460E-03  1.55582602E-04  2.17299421E-05   0.0000000      1.52333014E-04  8.31951853E-04  1.29376000E-04  1.49320704E-05  8.72099190E-05  1.45984550E-05   0.0000000      4.16972267E-04  3.75071168E-03  7.54885236E-03  1.38590543E-03  1.27423764E-05   0.0000000       0.0000000       0.0000000       0.0000000       0.0000000       0.0000000       0.0000000       0.0000000       0.0000000       0.0000000       0.0000000       0.0000000       0.0000000       0.0000000       0.0000000       0.0000000       0.0000000       0.0000000       0.0000000       0.0000000       0.0000000       0.0000000       0.0000000       0.0000000      9.06215882E-06  2.17179593E-04  1.80740724E-03  8.27028323E-03  2.78614648E-03   0.0000000       0.0000000       0.0000000       0.0000000      3.07456846E-03  6.65049329E-02  2.70894077E-02   0.0000000       0.0000000      1.30048825E-03  3.46537083E-02  1.83617529E-02  7.56548643E-02  3.65590304E-02  2.83092372E-02  7.70057142E-02  0.57193452       2.6548891       15.677264       25.096716       11.553493       2.2610230      0.91782701      0.98566282       58.352333       268.09406       462.27780       500.23914       565.42682       665.55518       574.45923       352.33630       204.47285       125.89459       77.553658       86.144669       121.46313       134.89734       108.80197       65.701805       58.721447       78.411339       68.108269       37.670197       29.887165       34.140530       30.354176       21.047592    
   0.0000000       0.0000000       0.0000000       0.0000000       0.0000000       0.0000000       0.0000000       0.0000000       0.0000000       0.0000000       0.0000000       0.0000000       0.0000000       0.0000000       0.0000000       0.0000000       0.0000000       0.0000000       0.0000000       0.0000000       0.0000000       0.0000000       0.0000000       0.0000000       0.0000000       0.0000000       0.0000000       0.0000000       0.0000000       0.0000000       0.0000000       0.0000000       0.0000000       0.0000000       0.0000000       0.0000000       0.0000000       0.0000000       0.0000000       0.0000000       0.0000000       0.0000000       0.0000000       0.0000000       0.0000000       0.0000000       0.0000000       0.0000000       0.0000000       0.0000000       0.0000000       0.0000000       0.0000000       0.0000000       0.0000000       0.0000000       0.0000000       0.0000000       0.0000000       0.0000000       0.0000000       0.0000000       0.0000000       0.0000000       0.0000000       0.0000000      7.47541781E-05  1.94173343E-02  7.97362775E-02  9.14365333E-03  2.06671510E-04  4.16932553E-02  0.74378586       3.3140421       4.0703349       2.2606733      0.25514668      4.56793159E-02  0.15930277      2.34736875E-02  0.21953081       1.2976577      0.60946316      6.78103790E-02  7.68262835E-04  4.56268899E-03  1.54491735E-03  6.72647776E-03  1.36532616E-02  2.50874180E-03  2.30660244E-05   0.0000000       0.0000000       0.0000000       0.0000000      1.43246620E-03  1.16414651E-02  2.61313398E-03   0.0000000       0.0000000       0.0000000       0.0000000       0.0000000       0.0000000       0.0000000       0.0000000       0.0000000       0.0000000       0.0000000       0.0000000       0.0000000       0.0000000       0.0000000       0.0000000       0.0000000       0.0000000      1.83578237E-08  9.79230299E-06  1.51589746E-04  5.39247230E-05   0.0000000       0.0000000       0.0000000       0.0000000      5.95070160E-05  1.28717558E-03  5.24304225E-04   0.0000000       0.0000000      2.51704150E-05  6.70708483E-04  3.55384225E-04  1.46426889E-03  2.20355042E-03  5.12448885E-02  0.11466003      4.91642579E-02  6.94274623E-03  0.21336031      0.38185868      0.15523003      0.40535206      0.22850853      0.89580846       64.117592       338.91000       731.24146       998.97516       1102.5706       991.59253       613.15759       227.91135       64.593498       25.630360       8.3474369       21.103142       79.356720       156.53833       180.72173       137.44049       122.13113       163.55272       166.38051       96.941780       26.745525       1.9629166       1.9142272       3.2524502    
   0.0000000       0.0000000       0.0000000       0.0000000       0.0000000       0.0000000       0.0000000       0.0000000       0.0000000       0.0000000       0.0000000       0.0000000       0.0000000       0.0000000       0.0000000       0.0000000       0.0000000       0.0000000       0.0000000       0.0000000       0.0000000       0.0000000       0.0000000       0.0000000       0.0000000       0.0000000       0.0000000       0.0000000       0.0000000       0.0000000       0.0000000       0.0000000       0.0000000       0.0000000       0.0000000       0.0000000       0.0000000       0.0000000       0.0000000       0.0000000       0.0000000       0.0000000       0.0000000       0.0000000       0.0000000       0.0000000       0.0000000       0.0000000       0.0000000       0.0000000       0.0000000       0.0000000       0.0000000       0.0000000       0.0000000       0.0000000       0.0000000       0.0000000       0.0000000       0.0000000       0.0000000       0.0000000       0.0000000       0.0000000       0.0000000      8.70381882E-06  2.65671336E-03  2.90748905E-02  0.14747904      0.76029837       3.6805813       11.934513       31.130346       65.557228       76.050652       49.062275       42.738018       61.707817       57.630959       33.070271       30.523598       47.537907       52.150124       51.248337       39.433205       19.549702       7.3591003       3.3461268      0.46274891      5.29620920E-05  4.86947272E-07   0.0000000       0.0000000       0.0000000       0.0000000      2.64321477E-03  3.52705531E-02  0.11968728      2.63753459E-02   0.0000000       0.0000000       0.0000000       0.0000000       0.0000000       0.0000000       0.0000000       0.0000000       0.0000000       0.0000000       0.0000000       0.0000000       0.0000000       0.0000000       0.0000000       0.0000000       0.0000000       0.0000000       0.0000000       0.0000000       0.0000000       0.0000000       0.0000000       0.0000000       0.0000000       0.0000000       0.0000000       0.0000000       0.0000000       0.0000000       0.0000000       0.0000000       0.0000000       0.0000000      3.19226674E-05  1.08183164E-03  2.60671531E-03  7.72662042E-03  3.46318539E-03   0.0000000       0.0000000      3.39613936E-04  1.76514871E-02  9.95154306E-03  0.33313876       25.763430       267.84473       789.08728       1289.0942       1435.4932       1109.6558       526.34924       115.62193       3.6037633      0.50025988      0.90876603       15.762306       75.198372       153.16901       171.87843       123.56585       100.63561       140.49586       161.22148       106.10332       30.415989      0.36082640      2.87328195E-02  6.09776638E-02
[...]
   327.58774       597.03143       810.28607       953.48657       1180.4318       1476.5977       1623.4695       1493.3846       1312.6890       1341.7465       1426.2465       1339.7311       1153.9481       996.95154       842.44556       712.23376       651.15796       559.81659       483.95410       532.39142       581.09595       545.36298       511.57620       473.36346       348.95074       222.76242       219.67284       287.94659       305.20700       285.08453       316.07043       388.27341       426.69617       396.46207       341.13440       308.59216       310.79901       344.92694       306.19946       172.88220       93.133476       67.947380       42.238068       32.970425       45.274464       65.105057       65.916092       49.709927       30.259407       14.488451       6.0405884       3.5107160       2.0266638      0.30926883       2.4195490       12.050872       16.621771       7.4180470       6.7513781       30.538391       74.396729       113.49539       127.39970       108.70040       74.175598       45.833706       23.874487       8.3369617       1.8656201      0.14355791      1.38086714E-02  0.49914715       2.9147513       5.2584338       4.9516215       2.9129977       1.4768604      0.62124151       1.3787979       3.2107148       2.4299374      0.59762007       1.8239229       8.8561087       20.974829       35.061657       57.531628       91.506721       127.97772       149.07434       148.74649       154.50621       176.30232       188.80029       177.96548       158.43445       152.21649       150.88669       144.52315       147.76187       153.32803       153.90591       172.19696       199.15004       211.22385       220.53653       226.61359       220.29323       216.98209       208.03014       174.62096       146.31194       131.50444       98.207764       50.110504       29.104412       50.501953       89.342400       134.66200       183.45544       215.33882       228.23299       246.17223       263.01575       260.62891       204.15062       91.553070       16.067894      1.31492282E-03  3.36406603E-02  1.49308108E-02   0.0000000       0.0000000       0.0000000       0.0000000       0.0000000       0.0000000       0.0000000       0.0000000       0.0000000       0.0000000       0.0000000       0.0000000       0.0000000       0.0000000      2.37502954E-05  1.79518817E-03  6.57160161E-03  0.53456104       6.2519894       33.347870       96.624550       147.45117       116.53421       40.175236       3.0576043      8.55671093E-02  6.64150715E-02   0.0000000       0.0000000       0.0000000       0.0000000       0.0000000       0.0000000       0.0000000       0.0000000       0.0000000       0.0000000    
   415.14059       620.71606       814.49689       1000.6004       1336.0288       1797.9159       2083.5630       2050.3162       1939.2780       1955.3354       1990.0184       1859.3995       1636.3916       1463.7869       1205.4951       872.22772       674.20825       569.32574       536.01385       643.05145       754.14948       729.31970       638.69946       548.22662       419.94116       299.24466       275.07526       315.20441       328.89993       305.27194       307.80615       361.54202       424.42953       448.74362       399.30566       301.36661       253.51360       276.79044       250.89085       145.57458       78.684677       59.882889       41.466339       34.591610       47.490967       67.120781       71.654556       59.747852       37.333481       15.887135       6.2465138       3.6370945       1.8167740      0.77950776       3.6104188       8.0196276       5.3481874      0.38479152      0.68525583       8.2700138       31.910734       51.972290       52.400074       39.547958       22.784163       10.226173       2.7056692      0.20209856      3.07366084E-02  0.13101169      1.53472172E-02   0.0000000      9.19322192E-05  2.74285749E-02  0.12949169      1.81318950E-02  1.44354737E-04  6.06499724E-02  0.52076757       1.2684815      0.94175750      0.87195784       5.6757579       20.996660       42.018429       59.000931       75.936287       97.408974       122.72636       141.31268       144.33485       154.36613       179.70148       188.97592       166.17801       141.81010       139.90450       140.85458       136.55969       143.95619       163.11978       174.68407       180.07576       191.02684       200.25732       209.43437       207.69066       183.41502       172.40025       176.32413       158.30946       136.52271       125.35000       98.705612       53.377464       16.328863       19.151279       68.147156       125.45277       165.76465       191.43570       201.24228       219.47182       247.51784       253.33954       211.48997       117.73676       31.689873       2.6449616      2.95874663E-02  3.21504697E-02  8.76592472E-03   0.0000000       0.0000000      1.20222184E-03  4.07674983E-02  2.04576571E-02   0.0000000       0.0000000       0.0000000       0.0000000       0.0000000       0.0000000       0.0000000       0.0000000      2.07060293E-05  1.56508421E-03  5.27102593E-03  0.39918107       2.8048851       19.709936       72.031067       124.33981       104.89843       37.761875       3.1736310      2.11295374E-02  1.64002124E-02   0.0000000       0.0000000       0.0000000       0.0000000       0.0000000       0.0000000       0.0000000       0.0000000       0.0000000      1.41586752E-05
   452.44794       635.55347       899.15649       1217.6312       1604.5642       1981.4977       2160.5801       2149.3203       2179.0762       2234.2119       2207.0132       2178.4368       2120.0107       1980.0603       1732.2711       1327.1488       898.84015       609.01166       507.38550       557.59174       659.98950       717.84357       687.18689       586.06842       456.45935       366.08551       348.03839       359.69763       348.28040       308.51563       286.93439       309.95688       377.75916       468.98294       459.07550       319.22464       219.75822       208.67862       178.72769       110.82977       73.538681       65.249985       46.734184       33.975571       41.182457       57.194752       70.506622       70.322365       46.393326       16.520483       3.9323492       1.3679152      0.39660558      0.92369866       5.5478930       10.621237       6.2073126      0.57386220      1.14385076E-02   1.2198176       6.6925187       11.213563       10.877427       7.8998699       3.6042190       1.3862600      0.71455497       2.9206154       5.6934724       4.9644704       1.8632778      0.25367868      5.14660329E-02  3.66880856E-02  4.17763181E-03  8.65136099E-06  1.95971676E-04  8.33888724E-03  5.19732237E-02  9.27250385E-02  0.21997358       1.5234532       9.5706873       31.476267       59.137470       79.701653       92.787621       102.72677       117.63225       134.01367       138.59344       143.81042       162.65027       169.23520       146.52521       125.58764       123.88871       124.80908       126.28464       139.24944       167.57840       188.73233       187.41771       185.67175       195.05295       208.61047       201.08237       163.55264       143.69080       154.66174       151.84770       129.65434       111.76691       95.561104       63.604427       21.285965       10.234203       52.596191       106.90330       143.56779       170.36984       179.30324       190.70938       222.66167       244.91664       232.85529       162.25191       59.911705       8.3840170      6.48064306E-04  2.68477201E-02  0.30125082      0.91945839      0.69715965      0.15829246      3.70618887E-02  4.21269797E-02  1.27402507E-02  2.15390231E-02  1.14640975E-02   0.0000000       0.0000000      2.37059387E-04  1.51658235E-02  1.82796046E-02  5.67774056E-03  1.79536844E-04  1.45316888E-02  1.85298007E-02   1.0385264       18.432240       65.653801       111.48793       99.267372       40.448570       4.9274607      1.57423988E-02  1.22188600E-02   0.0000000       0.0000000       0.0000000       0.0000000       0.0000000       0.0000000       0.0000000       0.0000000       0.0000000      3.85789271E-03
   436.95398       720.66077       1088.6429       1496.5156       1869.2550       2027.5758       1878.5074       1629.1234       1618.1709       1758.4033       1867.3862       2106.6421       2298.7349       2216.9131       2092.2693       1854.2535       1342.1896       852.38025       617.80945       544.01129       547.54279       622.68756       677.23859       640.37909       546.87604       470.99091       443.32629       429.85620       395.17462       339.86905       301.47479       305.49442       365.90933       471.50818       482.18448       349.94855       235.62628       180.79532       129.38074       92.594734       85.006798       81.985428       57.362240       37.220093       39.369926       51.309330       65.336884       67.933662       44.910694       14.210746       1.5941436      0.35359967      2.05189325E-02  0.48451400       2.9624929       5.6437459       3.3416679      0.36105546      1.70524921E-02  5.65925788E-04  6.31478056E-02  0.43297905      0.95966262      0.80260366      0.21531841      0.12335280       1.9381316       9.1957664       15.603446       12.394833       4.7322664      0.72793359      7.61925206E-02  3.84244770E-02  4.44978941E-03  7.90982540E-06  3.45394859E-04  1.57312630E-03  3.45544599E-04  1.35671999E-02  0.22872365       2.1658163       11.948028       36.507618       69.037415       96.215439       109.69089       109.25265       113.13103       128.04135       134.73247       133.67134       140.74741       142.80376       128.50096       115.98701       113.23979       113.49135       119.04449       138.64453       166.07144       183.09103       187.61133       189.17441       199.44424       212.66859       202.24596       166.06102       136.34892       133.36446       135.57109       119.76845       97.722595       85.687004       65.786858       27.184309       7.0181885       33.359219       86.017128       131.33900       161.80457       172.62813       179.17778       205.67642       241.18040       257.79788       203.46896       87.027367       14.413962       0.0000000      8.75884015E-03  0.43222430       5.8722825       10.925046       6.1296258       1.0557081      2.26428024E-02  4.32388932E-02  3.61827910E-02  1.58340074E-02  0.27128294      0.99774069      0.82951546      0.21515818      1.76976565E-02  5.78353601E-03  1.64148194E-04  1.32861324E-02  1.00811804E-02  0.25938210       12.081908       43.069096       75.295731       75.060013       38.714188       7.8420787      4.17265855E-02  4.45885491E-03   0.0000000       0.0000000       0.0000000       0.0000000       0.0000000       0.0000000       0.0000000      2.00136355E-03  1.91033806E-03  3.51566286E-03
   301.35757       622.87469       1040.5996       1504.9766       1831.9714       1719.8804       1242.6729       817.48267       718.24225       855.51532       1116.8990       1500.0603       1757.8378       1798.2623       1927.1566       2036.9775       1776.5775       1305.0497       928.41351       670.44696       524.52393       539.70526       612.16180       622.67175       583.91113       537.89960       501.63071       468.90149       424.72977       366.57266       333.07034       350.38867       407.29883       488.00595       493.94550       381.00790       263.30719       180.75739       121.21370       99.318527       95.908195       87.104362       62.903339       42.888462       44.887299       54.219872       56.842152       51.608486       35.504654       16.109539       7.4517517       5.2421374       2.0306647      0.19240874      0.41126025      0.71493495      0.35839772      3.66605148E-02  1.50042931E-02  4.56976518E-03  8.49432126E-03  4.15851213E-02  0.15053208      1.44233201E-02   0.0000000      0.23557623       2.6137981       9.7515039       14.518336       10.428025       3.7998824      0.63501894      3.86256538E-02  4.76836460E-03  1.60673633E-03  1.06098375E-03  3.25854891E-03  1.22530689E-03  1.14633040E-04  2.26279581E-03  0.18649313       2.5387614       13.890027       38.642044       72.446022       104.76398       121.14244       116.93092       114.17155       121.72340       123.38735       121.09145       125.48092       129.04449       125.76776       118.96458       110.72357       105.22495       111.27103       136.56021       157.84534       163.13312       178.93494       198.89427       212.67813       216.31688       198.26610       166.98651       134.79472       117.93176       116.30563       107.28706       85.591370       65.567856       45.414444       18.873255       3.7317736       14.421577       56.908604       113.87228       158.62711       178.37326       188.58069       206.25826       232.30888       252.35219       210.91629       100.66155       18.783363       0.0000000       0.0000000      0.42376670       13.292870       35.666790       29.389778       8.1156826      0.31812418      2.95766592E-02  3.99795026E-02   1.2468160       8.7802181       16.084522       11.689456       2.9792466      7.28806434E-03  5.54679369E-04  6.29611714E-06  1.01321947E-03  4.42499630E-02  5.74250594E-02   3.0550702       12.404375       27.009348       36.272907       28.999022       11.183241       1.2223203      5.94853991E-05  3.43273133E-02  2.77769417E-02   0.0000000       0.0000000       0.0000000       0.0000000      1.70868312E-04  2.03304738E-03  1.78854819E-03   0.0000000    
   111.64804       304.24164       672.24310       1220.2205       1546.4431       1231.1223       639.49225       312.90189       245.38092       282.20352       445.78836       696.19470       876.96436       1055.6156       1434.7794       1856.7150       1927.5197       1627.3850       1228.2404       862.20618       622.58545       578.41956       609.56506       590.97369       545.14697       514.89178       494.79935       474.07822       436.26700       387.68417       378.53781       415.67636       471.35077       528.95099       525.00128       428.93384       306.69473       211.03729       152.02713       120.53440       99.261551       84.697174       66.956062       48.338051       49.322670       54.551548       47.892227       42.055897       34.740379       27.869612       28.628769       25.323553       13.385350       2.7185171      0.13947959      7.65031218E-05  2.35368498E-03  1.85707659E-02  3.86838429E-02  1.05657205E-02  8.51208903E-03  7.22306024E-04   0.0000000       0.0000000      7.84352049E-03  0.18877167       1.2694223       3.5568252       4.5705857       2.8501120      0.91321641      0.16562270      2.11755317E-02  6.79328432E-03  4.10821009E-03  1.34725939E-03  2.97480891E-03  4.09549219E-04   0.0000000       0.0000000      7.99644217E-02   1.9629664       13.499969       37.936146       68.928040       100.13629       118.75526       119.84789       120.70718       120.02277       111.91739       110.50600       117.45483       124.07373       126.30989       120.15803       108.56020       102.01757       110.01910       134.96367       146.88768       140.29773       160.25555       196.11426       215.66351       216.04266       195.15562       164.23485       136.41794       119.58604       110.95853       96.878723       69.913887       38.861927       17.109184       5.5093498      0.92755508       3.0687346       25.182140       83.578545       149.32332       187.36356       206.84384       218.87541       225.15785       227.61501       186.96805       90.301834       17.115852       0.0000000       0.0000000      0.49430883       16.064320       59.465717       68.749092       31.802078       5.1694832       0.0000000      0.10136975       4.9636388       27.054293       44.229389       30.730410       7.9836779      0.15287529       0.0000000      6.03615899E-06  9.75518546E-04  4.30969484E-02  5.75421713E-02  2.01789718E-02  5.28968051E-02   2.6440818       8.7987833       13.402535       8.5660839       1.9991161      0.34058219      0.17098311      2.66912598E-02  5.06432152E-05   0.0000000       0.0000000       0.0000000      7.40105577E-04  6.89897453E-04  3.49004902E-02  0.61962175    
   12.479976       60.043568       277.25900       785.58868       1184.5385       979.58392       504.81567       261.91898       189.03200       144.31569       152.61917       229.87123       366.53409       616.87555       1084.3176       1654.2954       1912.3925       1750.9385       1480.3745       1224.7161       982.37036       812.24908       713.09314       628.87756       544.45416       488.18063       463.85724       461.55719       453.78464       435.74677       436.55829       459.80444       510.65390       565.33057       574.17609       524.68188       416.81305       296.91595       210.54169       145.59711       102.65319       86.895584       72.001282       54.417236       51.893883       48.190929       41.688358       47.517143       48.269920       49.202660       62.336407       64.035286       44.841251       20.760361       8.3655558       3.6434383      0.82306051      5.51278777E-02  2.98289470E-02  1.67808346E-02  3.65863331E-02  3.24697909E-03   0.0000000      6.22880936E-04  1.00893425E-02  5.93426786E-02  0.13482890      7.75669962E-02  7.22822081E-03  2.44143256E-03  1.06416158E-02  3.49206896E-03  1.11151384E-02  6.60890620E-03  4.64637615E-02  0.28353509      0.49271867      0.81295019       1.1960927      0.57523292      6.42872304E-02  0.77154398       7.6880093       26.427885       51.792553       78.787079       97.967072       106.54198       114.81898       115.19180       107.77716       108.22197       112.56816       116.34794       118.15490       110.95351       102.82404       104.37689       111.65962       124.75935       131.65305       129.59062       150.01157       185.06436       208.48123       215.33231       196.98242       166.61842       144.28416       129.63776       112.70213       84.920036       48.370785       16.773592       2.7104769      0.12002844      6.39918260E-03  0.24104820       6.3054957       48.186333       119.55623       175.74597       208.79617       226.70113       225.14041       203.62062       144.59424       57.937557       9.1305637       0.0000000      4.39688418E-04  0.44756562       14.591052       66.781540       101.42962       65.538528       15.446494      0.21302068      0.14426269       6.9490924       32.848038       50.220551       33.397919       8.4403934      0.16279623       0.0000000       0.0000000      4.05803394E-06  6.62057020E-04  2.94358041E-02  2.28522997E-02  2.30253115E-03  4.14994173E-03  0.61676973       2.3416946       6.4806542       10.620242       7.2979274       1.6196473      1.85872968E-02  1.53841209E-02   0.0000000       0.0000000       0.0000000      5.65751165E-04  5.27371129E-04  0.32225516       2.4468813    
